# generated using pymatgen
data_AlH4C8O5
_symmetry_space_group_name_H-M   'P 1'
_cell_length_a   10.37800000
_cell_length_b   16.09541318
_cell_length_c   16.09541318
_cell_angle_alpha   84.03417178
_cell_angle_beta   71.19247727
_cell_angle_gamma   71.19247727
_symmetry_Int_Tables_number   1
_chemical_formula_structural   AlH4C8O5
_chemical_formula_sum   'Al8 H32 C64 O40'
_cell_volume   2409.11368150
_cell_formula_units_Z   8
loop_
 _symmetry_equiv_pos_site_id
 _symmetry_equiv_pos_as_xyz
  1  'x, y, z'
loop_
 _atom_site_type_symbol
 _atom_site_label
 _atom_site_symmetry_multiplicity
 _atom_site_fract_x
 _atom_site_fract_y
 _atom_site_fract_z
 _atom_site_occupancy
  Al  Al0  1  0.89520000  0.07040000  0.43560000  1.0
  Al  Al1  1  0.08080000  0.06440000  0.57040000  1.0
  Al  Al2  1  0.71560000  0.93560000  0.42960000  1.0
  Al  Al3  1  0.40120000  0.92960000  0.56440000  1.0
  Al  Al4  1  0.88250000  0.42730000  0.06390000  1.0
  Al  Al5  1  0.69640000  0.43610000  0.92730000  1.0
  Al  Al6  1  0.05980000  0.56390000  0.07270000  1.0
  Al  Al7  1  0.37370000  0.57270000  0.93610000  1.0
  C  C8  1  0.07580000  0.40880000  0.18160000  1.0
  C  C9  1  0.00740000  0.31840000  0.90880000  1.0
  C  C10  1  0.23460000  0.68160000  0.09120000  1.0
  C  C11  1  0.66620000  0.59120000  0.81840000  1.0
  C  C12  1  0.69130000  0.32330000  0.09010000  1.0
  C  C13  1  0.53140000  0.40990000  0.82330000  1.0
  C  C14  1  0.76460000  0.59010000  0.17670000  1.0
  C  C15  1  0.10470000  0.67670000  0.90990000  1.0
  C  C16  1  0.71670000  0.09080000  0.31500000  1.0
  C  C17  1  0.78170000  0.18500000  0.59080000  1.0
  C  C18  1  0.55750000  0.81500000  0.40920000  1.0
  C  C19  1  0.12250000  0.90920000  0.68500000  1.0
  C  C20  1  0.06830000  0.17790000  0.41190000  1.0
  C  C21  1  0.23020000  0.08810000  0.67790000  1.0
  C  C22  1  0.99620000  0.91190000  0.32210000  1.0
  C  C23  1  0.65810000  0.82210000  0.58810000  1.0
  C  C24  1  0.14280000  0.34894000  0.24586000  1.0
  C  C25  1  0.13866000  0.25414000  0.84894000  1.0
  C  C26  1  0.24174000  0.74586000  0.15106000  1.0
  C  C27  1  0.73760000  0.65106000  0.75414000  1.0
  C  C28  1  0.08320000  0.28490000  0.28110000  1.0
  C  C29  1  0.11430000  0.21890000  0.78490000  1.0
  C  C30  1  0.11810000  0.78110000  0.21510000  1.0
  C  C31  1  0.64920000  0.71510000  0.71890000  1.0
  C  C32  1  0.14060000  0.23650000  0.34930000  1.0
  C  C33  1  0.23990000  0.15070000  0.73650000  1.0
  C  C34  1  0.12710000  0.84930000  0.26350000  1.0
  C  C35  1  0.72640000  0.76350000  0.65070000  1.0
  C  C36  1  0.23970000  0.25030000  0.38650000  1.0
  C  C37  1  0.37620000  0.11350000  0.75030000  1.0
  C  C38  1  0.24000000  0.88650000  0.24970000  1.0
  C  C39  1  0.87650000  0.74970000  0.61350000  1.0
  C  C40  1  0.29610000  0.31300000  0.34120000  1.0
  C  C41  1  0.38730000  0.15880000  0.81300000  1.0
  C  C42  1  0.35910000  0.84120000  0.18700000  1.0
  C  C43  1  0.95030000  0.68700000  0.65880000  1.0
  C  C44  1  0.24900000  0.36210000  0.27210000  1.0
  C  C45  1  0.27110000  0.22790000  0.86210000  1.0
  C  C46  1  0.36110000  0.77210000  0.13790000  1.0
  C  C47  1  0.88320000  0.63790000  0.72790000  1.0
  C  C48  1  0.65370000  0.12870000  0.24170000  1.0
  C  C49  1  0.64540000  0.25830000  0.62870000  1.0
  C  C50  1  0.53240000  0.74170000  0.37130000  1.0
  C  C51  1  0.02410000  0.87130000  0.75830000  1.0
  C  C52  1  0.70170000  0.20020000  0.21440000  1.0
  C  C53  1  0.66610000  0.28560000  0.70020000  1.0
  C  C54  1  0.65190000  0.71440000  0.29980000  1.0
  C  C55  1  0.11630000  0.79980000  0.78560000  1.0
  C  C56  1  0.65170000  0.25010000  0.14610000  1.0
  C  C57  1  0.54780000  0.35390000  0.75010000  1.0
  C  C58  1  0.65180000  0.64610000  0.24990000  1.0
  C  C59  1  0.04790000  0.74990000  0.85390000  1.0
  C  C60  1  0.55720000  0.22050000  0.11530000  1.0
  C  C61  1  0.42250000  0.38470000  0.72050000  1.0
  C  C62  1  0.52770000  0.61530000  0.27950000  1.0
  C  C63  1  0.89300000  0.77950000  0.88470000  1.0
  C  C64  1  0.49830000  0.15490000  0.16070000  1.0
  C  C65  1  0.40900000  0.33930000  0.65490000  1.0
  C  C66  1  0.40320000  0.66070000  0.34510000  1.0
  C  C67  1  0.81390000  0.84510000  0.83930000  1.0
  C  C68  1  0.56360000  0.09390000  0.21570000  1.0
  C  C69  1  0.52930000  0.28430000  0.59390000  1.0
  C  C70  1  0.40750000  0.71570000  0.40610000  1.0
  C  C71  1  0.87320000  0.90610000  0.78430000  1.0
  H  H72  1  0.39973200  0.15132800  0.15302000  1.0
  H  H73  1  0.30275200  0.34698000  0.65132800  1.0
  H  H74  1  0.30106000  0.65302000  0.34867200  1.0
  H  H75  1  0.70408000  0.84867200  0.84698000  1.0
  H  H76  1  0.00168100  0.27121300  0.26072300  1.0
  H  H77  1  0.01240400  0.23927700  0.77121300  1.0
  H  H78  1  0.02289400  0.76072300  0.22878700  1.0
  H  H79  1  0.53361700  0.72878700  0.73927700  1.0
  H  H80  1  0.53122700  0.24932800  0.05619400  1.0
  H  H81  1  0.33742100  0.44380600  0.74932800  1.0
  H  H82  1  0.53055500  0.55619400  0.25067200  1.0
  H  H83  1  0.83674900  0.75067200  0.94380600  1.0
  H  H84  1  0.26640390  0.21538700  0.44334500  1.0
  H  H85  1  0.45974890  0.05665500  0.71538700  1.0
  H  H86  1  0.23179090  0.94334500  0.28461300  1.0
  H  H87  1  0.92513590  0.78461300  0.55665500  1.0
  H  H88  1  0.54736600  0.03025800  0.23507400  1.0
  H  H89  1  0.53244000  0.26492600  0.53025800  1.0
  H  H90  1  0.32762400  0.73507400  0.46974200  1.0
  H  H91  1  0.81269800  0.96974200  0.76492600  1.0
  H  H92  1  0.77211200  0.21738600  0.24256200  1.0
  H  H93  1  0.76467400  0.25743800  0.71738600  1.0
  H  H94  1  0.73949800  0.74256200  0.28261400  1.0
  H  H95  1  0.23206000  0.78261400  0.75743800  1.0
  H  H96  1  0.38080100  0.32616200  0.35853600  1.0
  H  H97  1  0.48933700  0.14146400  0.82616200  1.0
  H  H98  1  0.45696300  0.85853600  0.17383800  1.0
  H  H99  1  0.06549900  0.67383800  0.64146400  1.0
  H  H100  1  0.29828100  0.41175200  0.23873000  1.0
  H  H101  1  0.28701100  0.26127000  0.91175200  1.0
  H  H102  1  0.46003300  0.73873000  0.08824800  1.0
  H  H103  1  0.94876300  0.58824800  0.76127000  1.0
  O  O104  1  0.01710000  0.38460000  0.13300000  1.0
  O  O105  1  0.90010000  0.36700000  0.88460000  1.0
  O  O106  1  0.15170000  0.63300000  0.11540000  1.0
  O  O107  1  0.53470000  0.61540000  0.86700000  1.0
  O  O108  1  0.77300000  0.34500000  0.12440000  1.0
  O  O109  1  0.64740000  0.37560000  0.84500000  1.0
  O  O110  1  0.86800000  0.62440000  0.15500000  1.0
  O  O111  1  0.24240000  0.65500000  0.87560000  1.0
  O  O112  1  0.77770000  0.12270000  0.35570000  1.0
  O  O113  1  0.88340000  0.14430000  0.62270000  1.0
  O  O114  1  0.65040000  0.85570000  0.37730000  1.0
  O  O115  1  0.25610000  0.87730000  0.64430000  1.0
  O  O116  1  0.01400000  0.14330000  0.36750000  1.0
  O  O117  1  0.13150000  0.13250000  0.64330000  1.0
  O  O118  1  0.90730000  0.86750000  0.35670000  1.0
  O  O119  1  0.52480000  0.85670000  0.63250000  1.0
  O  O120  1  0.68690000  0.02280000  0.33780000  1.0
  O  O121  1  0.77470000  0.16220000  0.52280000  1.0
  O  O122  1  0.45970000  0.83780000  0.47720000  1.0
  O  O123  1  0.04750000  0.97720000  0.66220000  1.0
  O  O124  1  0.78090000  0.00480000  0.49580000  1.0
  O  O125  1  0.02670000  0.00420000  0.50480000  1.0
  O  O126  1  0.53570000  0.99580000  0.49520000  1.0
  O  O127  1  0.28150000  0.99520000  0.50420000  1.0
  O  O128  1  0.08670000  0.14620000  0.48440000  1.0
  O  O129  1  0.32110000  0.01560000  0.64620000  1.0
  O  O130  1  0.98290000  0.98440000  0.35380000  1.0
  O  O131  1  0.71730000  0.85380000  0.51560000  1.0
  O  O132  1  0.67800000  0.34490000  0.01630000  1.0
  O  O133  1  0.44430000  0.48370000  0.84490000  1.0
  O  O134  1  0.77290000  0.51630000  0.15510000  1.0
  O  O135  1  0.03920000  0.65510000  0.98370000  1.0
  O  O136  1  0.13520000  0.46440000  0.14680000  1.0
  O  O137  1  0.03200000  0.35320000  0.96440000  1.0
  O  O138  1  0.34960000  0.64680000  0.03560000  1.0
  O  O139  1  0.74640000  0.53560000  0.85320000  1.0
  O  O140  1  0.78950000  0.47460000  0.98480000  1.0
  O  O141  1  0.52430000  0.51520000  0.97460000  1.0
  O  O142  1  0.01410000  0.48480000  0.02540000  1.0
  O  O143  1  0.24890000  0.52540000  0.01520000  1.0
