# generated using pymatgen
data_MgH2(CO2)2
_symmetry_space_group_name_H-M   'P 1'
_cell_length_a   7.54660000
_cell_length_b   13.77160000
_cell_length_c   24.74100000
_cell_angle_alpha   90.00000000
_cell_angle_beta   90.00000000
_cell_angle_gamma   90.00000000
_symmetry_Int_Tables_number   1
_chemical_formula_structural   MgH2(CO2)2
_chemical_formula_sum   'Mg24 H48 C48 O96'
_cell_volume   2571.30136605
_cell_formula_units_Z   24
loop_
 _symmetry_equiv_pos_site_id
 _symmetry_equiv_pos_as_xyz
  1  'x, y, z'
loop_
 _atom_site_type_symbol
 _atom_site_label
 _atom_site_symmetry_multiplicity
 _atom_site_fract_x
 _atom_site_fract_y
 _atom_site_fract_z
 _atom_site_occupancy
  Mg  Mg0  1  0.85169000  0.54145000  0.82862000  1
  Mg  Mg1  1  0.14831000  0.45855000  0.32862000  1
  Mg  Mg2  1  0.14831000  0.04145000  0.82862000  1
  Mg  Mg3  1  0.85169000  0.95855000  0.32862000  1
  Mg  Mg4  1  0.47920000  0.58077000  0.61277000  1.0
  Mg  Mg5  1  0.52080000  0.41923000  0.11277000  1.0
  Mg  Mg6  1  0.52080000  0.08077000  0.61277000  1.0
  Mg  Mg7  1  0.47920000  0.91923000  0.11277000  1.0
  Mg  Mg8  1  0.18207000  0.65747000  0.87529000  1.0
  Mg  Mg9  1  0.81793000  0.34253000  0.37529000  1.0
  Mg  Mg10  1  0.81793000  0.15747000  0.87529000  1.0
  Mg  Mg11  1  0.18207000  0.84253000  0.37529000  1.0
  Mg  Mg12  1  0.51507000  0.66637000  0.79507000  1.0
  Mg  Mg13  1  0.48493000  0.33363000  0.29507000  1.0
  Mg  Mg14  1  0.48493000  0.16637000  0.79507000  1.0
  Mg  Mg15  1  0.51507000  0.83363000  0.29507000  1.0
  Mg  Mg16  1  0.18597000  0.40958000  0.03654000  1.0
  Mg  Mg17  1  0.81403000  0.59042000  0.53654000  1.0
  Mg  Mg18  1  0.81403000  0.90958000  0.03654000  1.0
  Mg  Mg19  1  0.18597000  0.09042000  0.53654000  1.0
  Mg  Mg20  1  0.14772000  0.79243000  0.07759000  1.0
  Mg  Mg21  1  0.85228000  0.20757000  0.57759000  1.0
  Mg  Mg22  1  0.85228000  0.29243000  0.07759000  1.0
  Mg  Mg23  1  0.14772000  0.70757000  0.57759000  1.0
  H  H24  1  0.27470000  0.50040000  0.74520000  1
  H  H25  1  0.72530000  0.49960000  0.24520000  1
  H  H26  1  0.72530000  0.00040000  0.74520000  1
  H  H27  1  0.27470000  0.99960000  0.24520000  1
  H  H28  1  0.93640000  0.81830000  0.81450000  1
  H  H29  1  0.06360000  0.18170000  0.31450000  1
  H  H30  1  0.06360000  0.31830000  0.81450000  1
  H  H31  1  0.93640000  0.68170000  0.31450000  1
  H  H32  1  0.94030000  0.43210000  0.93360000  1
  H  H33  1  0.05970000  0.56790000  0.43360000  1
  H  H34  1  0.05970000  0.93210000  0.93360000  1
  H  H35  1  0.94030000  0.06790000  0.43360000  1
  H  H36  1  0.55330000  0.37880000  0.81790000  1
  H  H37  1  0.44670000  0.62120000  0.31790000  1
  H  H38  1  0.44670000  0.87880000  0.81790000  1
  H  H39  1  0.55330000  0.12120000  0.31790000  1
  H  H40  1  0.61250000  0.55610000  0.93670000  1
  H  H41  1  0.38750000  0.44390000  0.43670000  1
  H  H42  1  0.38750000  0.05610000  0.93670000  1
  H  H43  1  0.61250000  0.94390000  0.43670000  1
  H  H44  1  0.78660000  0.48510000  0.70780000  1
  H  H45  1  0.21340000  0.51490000  0.20780000  1
  H  H46  1  0.21340000  0.98510000  0.70780000  1
  H  H47  1  0.78660000  0.01490000  0.20780000  1
  H  H48  1  0.86890000  0.72650000  0.95480000  1
  H  H49  1  0.13110000  0.27350000  0.45480000  1
  H  H50  1  0.13110000  0.22650000  0.95480000  1
  H  H51  1  0.86890000  0.77350000  0.45480000  1
  H  H52  1  0.72690000  0.75280000  0.66260000  1
  H  H53  1  0.27310000  0.24720000  0.16260000  1
  H  H54  1  0.27310000  0.25280000  0.66260000  1
  H  H55  1  0.72690000  0.74720000  0.16260000  1
  H  H56  1  0.39450000  0.70080000  0.47310000  1
  H  H57  1  0.60550000  0.29920000  0.97310000  1
  H  H58  1  0.60550000  0.20080000  0.47310000  1
  H  H59  1  0.39450000  0.79920000  0.97310000  1
  H  H60  1  0.05520000  0.43230000  0.59560000  1
  H  H61  1  0.94480000  0.56770000  0.09560000  1
  H  H62  1  0.94480000  0.93230000  0.59560000  1
  H  H63  1  0.05520000  0.06770000  0.09560000  1
  H  H64  1  0.54270000  0.36460000  0.57910000  1
  H  H65  1  0.45730000  0.63540000  0.07910000  1
  H  H66  1  0.45730000  0.86460000  0.57910000  1
  H  H67  1  0.54270000  0.13540000  0.07910000  1
  H  H68  1  0.21210000  0.76810000  0.69750000  1
  H  H69  1  0.78790000  0.23190000  0.19750000  1
  H  H70  1  0.78790000  0.26810000  0.69750000  1
  H  H71  1  0.21210000  0.73190000  0.19750000  1
  C  C72  1  0.20970000  0.52400000  0.77433000  1
  C  C73  1  0.79030000  0.47600000  0.27433000  1
  C  C74  1  0.79030000  0.02400000  0.77433000  1
  C  C75  1  0.20970000  0.97600000  0.27433000  1
  C  C76  1  0.87410000  0.76010000  0.81235000  1
  C  C77  1  0.12590000  0.23990000  0.31235000  1
  C  C78  1  0.12590000  0.26010000  0.81235000  1
  C  C79  1  0.87410000  0.73990000  0.31235000  1
  C  C80  1  0.01470000  0.48580000  0.93530000  1
  C  C81  1  0.98530000  0.51420000  0.43530000  1
  C  C82  1  0.98530000  0.98580000  0.93530000  1
  C  C83  1  0.01470000  0.01420000  0.43530000  1
  C  C84  1  0.65230000  0.34940000  0.83319000  1
  C  C85  1  0.34770000  0.65060000  0.33319000  1
  C  C86  1  0.34770000  0.84940000  0.83319000  1
  C  C87  1  0.65230000  0.15060000  0.33319000  1
  C  C88  1  0.54760000  0.58640000  0.90953000  1
  C  C89  1  0.45240000  0.41360000  0.40953000  1
  C  C90  1  0.45240000  0.08640000  0.90953000  1
  C  C91  1  0.54760000  0.91360000  0.40953000  1
  C  C92  1  0.68550000  0.52000000  0.71704000  1
  C  C93  1  0.31450000  0.48000000  0.21704000  1
  C  C94  1  0.31450000  0.02000000  0.71704000  1
  C  C95  1  0.68550000  0.98000000  0.21704000  1
  C  C96  1  0.97640000  0.75040000  0.96750000  1
  C  C97  1  0.02360000  0.24960000  0.46750000  1
  C  C98  1  0.02360000  0.25040000  0.96750000  1
  C  C99  1  0.97640000  0.74960000  0.46750000  1
  C  C100  1  0.79010000  0.72600000  0.63399000  1
  C  C101  1  0.20990000  0.27400000  0.13399000  1
  C  C102  1  0.20990000  0.22600000  0.63399000  1
  C  C103  1  0.79010000  0.77400000  0.13399000  1
  C  C104  1  0.45830000  0.66850000  0.49970000  1
  C  C105  1  0.54170000  0.33150000  0.99970000  1
  C  C106  1  0.54170000  0.16850000  0.49970000  1
  C  C107  1  0.45830000  0.83150000  0.99970000  1
  C  C108  1  0.12110000  0.48930000  0.59640000  1
  C  C109  1  0.87890000  0.51070000  0.09640000  1
  C  C110  1  0.87890000  0.98930000  0.59640000  1
  C  C111  1  0.12110000  0.01070000  0.09640000  1
  C  C112  1  0.64800000  0.39690000  0.57148000  1
  C  C113  1  0.35200000  0.60310000  0.07148000  1
  C  C114  1  0.35200000  0.89690000  0.57148000  1
  C  C115  1  0.64800000  0.10310000  0.07148000  1
  C  C116  1  0.30970000  0.72910000  0.69000000  1
  C  C117  1  0.69030000  0.27090000  0.19000000  1
  C  C118  1  0.69030000  0.22910000  0.69000000  1
  C  C119  1  0.30970000  0.77090000  0.19000000  1
  O  O120  1  0.05220000  0.49690000  0.77864000  1
  O  O121  1  0.94780000  0.50310000  0.27864000  1
  O  O122  1  0.94780000  0.99690000  0.77864000  1
  O  O123  1  0.05220000  0.00310000  0.27864000  1
  O  O124  1  0.28770000  0.58145000  0.80686000  1
  O  O125  1  0.71230000  0.41855000  0.30686000  1
  O  O126  1  0.71230000  0.08145000  0.80686000  1
  O  O127  1  0.28770000  0.91855000  0.30686000  1
  O  O128  1  0.95440000  0.68330000  0.82697000  1
  O  O129  1  0.04560000  0.31670000  0.32697000  1
  O  O130  1  0.04560000  0.18330000  0.82697000  1
  O  O131  1  0.95440000  0.81670000  0.32697000  1
  O  O132  1  0.01430000  0.54340000  0.89506000  1
  O  O133  1  0.98570000  0.45660000  0.39506000  1
  O  O134  1  0.98570000  0.04340000  0.89506000  1
  O  O135  1  0.01430000  0.95660000  0.39506000  1
  O  O136  1  0.10450000  0.49530000  0.97598000  1
  O  O137  1  0.89550000  0.50470000  0.47598000  1
  O  O138  1  0.89550000  0.99530000  0.97598000  1
  O  O139  1  0.10450000  0.00470000  0.47598000  1
  O  O140  1  0.78040000  0.40201000  0.84443000  1
  O  O141  1  0.21960000  0.59799000  0.34443000  1
  O  O142  1  0.21960000  0.90201000  0.84443000  1
  O  O143  1  0.78040000  0.09799000  0.34443000  1
  O  O144  1  0.56550000  0.52460000  0.68339000  1
  O  O145  1  0.43450000  0.47540000  0.18339000  1
  O  O146  1  0.43450000  0.02460000  0.68339000  1
  O  O147  1  0.56550000  0.97540000  0.18339000  1
  O  O148  1  0.10650000  0.73850000  0.93878000  1
  O  O149  1  0.89350000  0.26150000  0.43878000  1
  O  O150  1  0.89350000  0.23850000  0.93878000  1
  O  O151  1  0.10650000  0.76150000  0.43878000  1
  O  O152  1  0.27720000  0.48300000  0.61125000  1
  O  O153  1  0.72280000  0.51700000  0.11125000  1
  O  O154  1  0.72280000  0.98300000  0.61125000  1
  O  O155  1  0.27720000  0.01700000  0.11125000  1
  O  O156  1  0.42500000  0.72230000  0.72549000  1
  O  O157  1  0.57500000  0.27770000  0.22549000  1
  O  O158  1  0.57500000  0.22230000  0.72549000  1
  O  O159  1  0.42500000  0.77770000  0.22549000  1
  O  O160  1  0.71910000  0.76380000  0.79539000  1.0
  O  O161  1  0.28090000  0.23620000  0.29539000  1.0
  O  O162  1  0.28090000  0.26380000  0.79539000  1.0
  O  O163  1  0.71910000  0.73620000  0.29539000  1.0
  O  O164  1  0.64660000  0.25919000  0.84095000  1.0
  O  O165  1  0.35340000  0.74081000  0.34095000  1.0
  O  O166  1  0.35340000  0.75919000  0.84095000  1.0
  O  O167  1  0.64660000  0.24081000  0.34095000  1.0
  O  O168  1  0.62490000  0.59980000  0.86431000  1.0
  O  O169  1  0.37510000  0.40020000  0.36431000  1.0
  O  O170  1  0.37510000  0.09980000  0.86431000  1.0
  O  O171  1  0.62490000  0.90020000  0.36431000  1.0
  O  O172  1  0.39320000  0.61040000  0.92040000  1.0
  O  O173  1  0.60680000  0.38960000  0.42040000  1.0
  O  O174  1  0.60680000  0.11040000  0.92040000  1.0
  O  O175  1  0.39320000  0.88960000  0.42040000  1.0
  O  O176  1  0.68130000  0.55950000  0.76344000  1.0
  O  O177  1  0.31870000  0.44050000  0.26344000  1.0
  O  O178  1  0.31870000  0.05950000  0.76344000  1.0
  O  O179  1  0.68130000  0.94050000  0.26344000  1.0
  O  O180  1  0.97540000  0.79250000  0.01326000  1.0
  O  O181  1  0.02460000  0.20750000  0.51326000  1.0
  O  O182  1  0.02460000  0.29250000  0.01326000  1.0
  O  O183  1  0.97540000  0.70750000  0.51326000  1.0
  O  O184  1  0.70860000  0.66570000  0.60394000  1.0
  O  O185  1  0.29140000  0.33430000  0.10394000  1.0
  O  O186  1  0.29140000  0.16570000  0.60394000  1.0
  O  O187  1  0.70860000  0.83430000  0.10394000  1.0
  O  O188  1  0.94570000  0.75220000  0.62857000  1.0
  O  O189  1  0.05430000  0.24780000  0.12857000  1.0
  O  O190  1  0.05430000  0.25220000  0.62857000  1.0
  O  O191  1  0.94570000  0.74780000  0.12857000  1.0
  O  O192  1  0.37740000  0.64920000  0.54365000  1.0
  O  O193  1  0.62260000  0.35080000  0.04365000  1.0
  O  O194  1  0.62260000  0.14920000  0.54365000  1.0
  O  O195  1  0.37740000  0.85080000  0.04365000  1.0
  O  O196  1  0.61510000  0.64780000  0.48938000  1.0
  O  O197  1  0.38490000  0.35220000  0.98938000  1.0
  O  O198  1  0.38490000  0.14780000  0.48938000  1.0
  O  O199  1  0.61510000  0.85220000  0.98938000  1.0
  O  O200  1  0.64270000  0.48886000  0.56821000  1.0
  O  O201  1  0.35730000  0.51114000  0.06821000  1.0
  O  O202  1  0.35730000  0.98886000  0.56821000  1.0
  O  O203  1  0.64270000  0.01114000  0.06821000  1.0
  O  O204  1  0.78260000  0.34729000  0.56534000  1.0
  O  O205  1  0.21740000  0.65271000  0.06534000  1.0
  O  O206  1  0.21740000  0.84729000  0.56534000  1.0
  O  O207  1  0.78260000  0.15271000  0.06534000  1.0
  O  O208  1  0.04270000  0.56680000  0.58211000  1.0
  O  O209  1  0.95730000  0.43320000  0.08211000  1.0
  O  O210  1  0.95730000  0.06680000  0.58211000  1.0
  O  O211  1  0.04270000  0.93320000  0.08211000  1.0
  O  O212  1  0.31360000  0.68750000  0.64465000  1.0
  O  O213  1  0.68640000  0.31250000  0.14465000  1.0
  O  O214  1  0.68640000  0.18750000  0.64465000  1.0
  O  O215  1  0.31360000  0.81250000  0.14465000  1.0
