# generated using pymatgen
data_MgH2(CO2)2
_symmetry_space_group_name_H-M   'P 1'
_cell_length_a   9.84700000
_cell_length_b   11.32400000
_cell_length_c   14.62300000
_cell_angle_alpha   91.15000000
_cell_angle_beta   90.00000000
_cell_angle_gamma   90.00000000
_symmetry_Int_Tables_number   1
_chemical_formula_structural   MgH2(CO2)2
_chemical_formula_sum   'Mg12 H24 C24 O48'
_cell_volume   1630.24468715
_cell_formula_units_Z   12
loop_
 _symmetry_equiv_pos_site_id
 _symmetry_equiv_pos_as_xyz
  1  'x, y, z'
loop_
 _atom_site_type_symbol
 _atom_site_label
 _atom_site_symmetry_multiplicity
 _atom_site_fract_x
 _atom_site_fract_y
 _atom_site_fract_z
 _atom_site_occupancy
  Mg  Mg0  1  0.50000000  0.00000000  0.50000000  1
  Mg  Mg1  1  0.00000000  0.50000000  0.00000000  1
  Mg  Mg2  1  0.50000000  0.50000000  0.50000000  1.0
  Mg  Mg3  1  0.00000000  0.00000000  0.00000000  1.0
  Mg  Mg4  1  0.57832000  0.74371000  0.36530000  1.0
  Mg  Mg5  1  0.07832000  0.75629000  0.13470000  1.0
  Mg  Mg6  1  0.42168000  0.25629000  0.63470000  1.0
  Mg  Mg7  1  0.92168000  0.24371000  0.86530000  1.0
  Mg  Mg8  1  0.38799000  0.76038000  0.19024000  1.0
  Mg  Mg9  1  0.88799000  0.73962000  0.30976000  1.0
  Mg  Mg10  1  0.61201000  0.23962000  0.80976000  1.0
  Mg  Mg11  1  0.11201000  0.26038000  0.69024000  1.0
  H  H12  1  0.46270000  0.02330000  0.23810000  1.0
  H  H13  1  0.96270000  0.47670000  0.26190000  1.0
  H  H14  1  0.53730000  0.97670000  0.76190000  1.0
  H  H15  1  0.03730000  0.52330000  0.73810000  1.0
  H  H16  1  0.87900000  0.93530000  0.45920000  1.0
  H  H17  1  0.37900000  0.56470000  0.04080000  1.0
  H  H18  1  0.12100000  0.06470000  0.54080000  1.0
  H  H19  1  0.62100000  0.43530000  0.95920000  1.0
  H  H20  1  0.79360000  0.50880000  0.48480000  1.0
  H  H21  1  0.29360000  0.99120000  0.01520000  1.0
  H  H22  1  0.20640000  0.49120000  0.51520000  1.0
  H  H23  1  0.70640000  0.00880000  0.98480000  1.0
  H  H24  1  0.73780000  0.63900000  0.13220000  1.0
  H  H25  1  0.23780000  0.86100000  0.36780000  1.0
  H  H26  1  0.26220000  0.36100000  0.86780000  1.0
  H  H27  1  0.76220000  0.13900000  0.63220000  1.0
  H  H28  1  0.34430000  0.80070000  0.56980000  1.0
  H  H29  1  0.84430000  0.69930000  0.93020000  1.0
  H  H30  1  0.65570000  0.19930000  0.43020000  1.0
  H  H31  1  0.15570000  0.30070000  0.06980000  1.0
  H  H32  1  0.30650000  0.52090000  0.27160000  1.0
  H  H33  1  0.80650000  0.97910000  0.22840000  1.0
  H  H34  1  0.69350000  0.47910000  0.72840000  1.0
  H  H35  1  0.19350000  0.02090000  0.77160000  1.0
  C  C36  1  0.48367000  0.98051000  0.28985000  1.0
  C  C37  1  0.98367000  0.51949000  0.21015000  1.0
  C  C38  1  0.51633000  0.01949000  0.71015000  1.0
  C  C39  1  0.01633000  0.48051000  0.78985000  1.0
  C  C40  1  0.78695000  0.92146000  0.44978000  1.0
  C  C41  1  0.28695000  0.57854000  0.05022000  1.0
  C  C42  1  0.21305000  0.07854000  0.55022000  1.0
  C  C43  1  0.71305000  0.42146000  0.94978000  1.0
  C  C44  1  0.77534000  0.56946000  0.44467000  1.0
  C  C45  1  0.27534000  0.93054000  0.05533000  1.0
  C  C46  1  0.22466000  0.43054000  0.55533000  1.0
  C  C47  1  0.72466000  0.06946000  0.94467000  1.0
  C  C48  1  0.66934000  0.66979000  0.16953000  1.0
  C  C49  1  0.16934000  0.83021000  0.33047000  1.0
  C  C50  1  0.33066000  0.33021000  0.83047000  1.0
  C  C51  1  0.83066000  0.16979000  0.66953000  1.0
  C  C52  1  0.39919000  0.75793000  0.52931000  1.0
  C  C53  1  0.89919000  0.74207000  0.97069000  1.0
  C  C54  1  0.60081000  0.24207000  0.47069000  1.0
  C  C55  1  0.10081000  0.25793000  0.02931000  1.0
  C  C56  1  0.36787000  0.54842000  0.31546000  1.0
  C  C57  1  0.86787000  0.95158000  0.18454000  1.0
  C  C58  1  0.63213000  0.45158000  0.68454000  1.0
  C  C59  1  0.13213000  0.04842000  0.81546000  1.0
  O  O60  1  0.49307000  0.86892000  0.27995000  1.0
  O  O61  1  0.99307000  0.63108000  0.22005000  1.0
  O  O62  1  0.50693000  0.13108000  0.72005000  1.0
  O  O63  1  0.00693000  0.36892000  0.77995000  1.0
  O  O64  1  0.49995000  0.03721000  0.36239000  1.0
  O  O65  1  0.99995000  0.46279000  0.13761000  1.0
  O  O66  1  0.50005000  0.96279000  0.63761000  1.0
  O  O67  1  0.00005000  0.53721000  0.86239000  1.0
  O  O68  1  0.70696000  0.98001000  0.49729000  1.0
  O  O69  1  0.20696000  0.51999000  0.00271000  1.0
  O  O70  1  0.29304000  0.01999000  0.50271000  1.0
  O  O71  1  0.79304000  0.48001000  0.99729000  1.0
  O  O72  1  0.47380000  0.81702000  0.47491000  1.0
  O  O73  1  0.97380000  0.68298000  0.02509000  1.0
  O  O74  1  0.52620000  0.18298000  0.52509000  1.0
  O  O75  1  0.02620000  0.31702000  0.97491000  1.0
  O  O76  1  0.39289000  0.48250000  0.37925000  1.0
  O  O77  1  0.89289000  0.01750000  0.12075000  1.0
  O  O78  1  0.60711000  0.51750000  0.62075000  1.0
  O  O79  1  0.10711000  0.98250000  0.87925000  1.0
  O  O80  1  0.87328000  0.61156000  0.40343000  1.0
  O  O81  1  0.37328000  0.88844000  0.09657000  1.0
  O  O82  1  0.12672000  0.38844000  0.59657000  1.0
  O  O83  1  0.62672000  0.11156000  0.90343000  1.0
  O  O84  1  0.55678000  0.68521000  0.13388000  1.0
  O  O85  1  0.05678000  0.81479000  0.36612000  1.0
  O  O86  1  0.44322000  0.31479000  0.86612000  1.0
  O  O87  1  0.94322000  0.18521000  0.63388000  1.0
  O  O88  1  0.39395000  0.64958000  0.53265000  1.0
  O  O89  1  0.89395000  0.85042000  0.96735000  1.0
  O  O90  1  0.60605000  0.35042000  0.46735000  1.0
  O  O91  1  0.10605000  0.14958000  0.03265000  1.0
  O  O92  1  0.41792000  0.65064000  0.30373000  1.0
  O  O93  1  0.91792000  0.84936000  0.19627000  1.0
  O  O94  1  0.58208000  0.34936000  0.69627000  1.0
  O  O95  1  0.08208000  0.15064000  0.80373000  1.0
  O  O96  1  0.75524000  0.84338000  0.38873000  1.0
  O  O97  1  0.25524000  0.65662000  0.11127000  1.0
  O  O98  1  0.24476000  0.15662000  0.61127000  1.0
  O  O99  1  0.74476000  0.34338000  0.88873000  1.0
  O  O100  1  0.65166000  0.60158000  0.43729000  1.0
  O  O101  1  0.15166000  0.89842000  0.06271000  1.0
  O  O102  1  0.34834000  0.39842000  0.56271000  1.0
  O  O103  1  0.84834000  0.10158000  0.93729000  1.0
  O  O104  1  0.69984000  0.69248000  0.25335000  1.0
  O  O105  1  0.19984000  0.80752000  0.24665000  1.0
  O  O106  1  0.30016000  0.30752000  0.74665000  1.0
  O  O107  1  0.80016000  0.19248000  0.75335000  1.0
