# generated using pymatgen
data_In3H15C24N4O19
_symmetry_space_group_name_H-M   'P 1'
_cell_length_a   22.45670000
_cell_length_b   22.45670000
_cell_length_c   22.45670000
_cell_angle_alpha   90.00000000
_cell_angle_beta   90.00000000
_cell_angle_gamma   90.00000000
_symmetry_Int_Tables_number   1
_chemical_formula_structural   In3H15C24N4O19
_chemical_formula_sum   'In24 H120 C192 N32 O152'
_cell_volume   11324.98959889
_cell_formula_units_Z   8
loop_
 _symmetry_equiv_pos_site_id
 _symmetry_equiv_pos_as_xyz
  1  'x, y, z'
loop_
 _atom_site_type_symbol
 _atom_site_label
 _atom_site_symmetry_multiplicity
 _atom_site_fract_x
 _atom_site_fract_y
 _atom_site_fract_z
 _atom_site_occupancy
  In  In0  1  0.32190000  0.26043000  0.19349000  1
  In  In1  1  0.19349000  0.32190000  0.26043000  1
  In  In2  1  0.26043000  0.19349000  0.32190000  1
  In  In3  1  0.32190000  0.73957000  0.80651000  1.0
  In  In4  1  0.67810000  0.73957000  0.19349000  1.0
  In  In5  1  0.80651000  0.32190000  0.73957000  1.0
  In  In6  1  0.19349000  0.67810000  0.73957000  1.0
  In  In7  1  0.73957000  0.80651000  0.32190000  1.0
  In  In8  1  0.73957000  0.19349000  0.67810000  1.0
  In  In9  1  0.23957000  0.82190000  0.30651000  1.0
  In  In10  1  0.82190000  0.30651000  0.23957000  1.0
  In  In11  1  0.30651000  0.23957000  0.82190000  1.0
  In  In12  1  0.67810000  0.26043000  0.80651000  1.0
  In  In13  1  0.80651000  0.67810000  0.26043000  1.0
  In  In14  1  0.26043000  0.80651000  0.67810000  1.0
  In  In15  1  0.76043000  0.17810000  0.30651000  1.0
  In  In16  1  0.23957000  0.17810000  0.69349000  1.0
  In  In17  1  0.76043000  0.82190000  0.69349000  1.0
  In  In18  1  0.17810000  0.30651000  0.76043000  1.0
  In  In19  1  0.17810000  0.69349000  0.23957000  1.0
  In  In20  1  0.82190000  0.69349000  0.76043000  1.0
  In  In21  1  0.30651000  0.76043000  0.17810000  1.0
  In  In22  1  0.69349000  0.23957000  0.17810000  1.0
  In  In23  1  0.69349000  0.76043000  0.82190000  1.0
  H  H24  1  0.42520000  0.79500000  0.58330000  1
  H  H25  1  0.60660000  0.80430000  0.59230000  1
  H  H26  1  0.50820000  0.77880000  0.74160000  1
  H  H27  1  0.57480000  0.20500000  0.58330000  1
  H  H28  1  0.39340000  0.19570000  0.59230000  1
  H  H29  1  0.49180000  0.22120000  0.74160000  1
  H  H30  1  0.57480000  0.79500000  0.41670000  1
  H  H31  1  0.39340000  0.80430000  0.40770000  1
  H  H32  1  0.49180000  0.77880000  0.25840000  1
  H  H33  1  0.42520000  0.20500000  0.41670000  1
  H  H34  1  0.60660000  0.19570000  0.40770000  1
  H  H35  1  0.50820000  0.22120000  0.25840000  1
  H  H36  1  0.58330000  0.42520000  0.79500000  1
  H  H37  1  0.59230000  0.60660000  0.80430000  1
  H  H38  1  0.74160000  0.50820000  0.77880000  1
  H  H39  1  0.58330000  0.57480000  0.20500000  1
  H  H40  1  0.59230000  0.39340000  0.19570000  1
  H  H41  1  0.74160000  0.49180000  0.22120000  1
  H  H42  1  0.41670000  0.57480000  0.79500000  1
  H  H43  1  0.40770000  0.39340000  0.80430000  1
  H  H44  1  0.25840000  0.49180000  0.77880000  1
  H  H45  1  0.41670000  0.42520000  0.20500000  1
  H  H46  1  0.40770000  0.60660000  0.19570000  1
  H  H47  1  0.25840000  0.50820000  0.22120000  1
  H  H48  1  0.79500000  0.58330000  0.42520000  1
  H  H49  1  0.80430000  0.59230000  0.60660000  1
  H  H50  1  0.77880000  0.74160000  0.50820000  1
  H  H51  1  0.20500000  0.58330000  0.57480000  1
  H  H52  1  0.19570000  0.59230000  0.39340000  1
  H  H53  1  0.22120000  0.74160000  0.49180000  1
  H  H54  1  0.79500000  0.41670000  0.57480000  1
  H  H55  1  0.80430000  0.40770000  0.39340000  1
  H  H56  1  0.77880000  0.25840000  0.49180000  1
  H  H57  1  0.20500000  0.41670000  0.42520000  1
  H  H58  1  0.19570000  0.40770000  0.60660000  1
  H  H59  1  0.22120000  0.25840000  0.50820000  1
  H  H60  1  0.29500000  0.92520000  0.08330000  1
  H  H61  1  0.30430000  0.10660000  0.09230000  1
  H  H62  1  0.27880000  0.00820000  0.24160000  1
  H  H63  1  0.70500000  0.07480000  0.08330000  1
  H  H64  1  0.69570000  0.89340000  0.09230000  1
  H  H65  1  0.72120000  0.99180000  0.24160000  1
  H  H66  1  0.29500000  0.07480000  0.91670000  1
  H  H67  1  0.30430000  0.89340000  0.90770000  1
  H  H68  1  0.27880000  0.99180000  0.75840000  1
  H  H69  1  0.70500000  0.92520000  0.91670000  1
  H  H70  1  0.69570000  0.10660000  0.90770000  1
  H  H71  1  0.72120000  0.00820000  0.75840000  1
  H  H72  1  0.92520000  0.08330000  0.29500000  1
  H  H73  1  0.10660000  0.09230000  0.30430000  1
  H  H74  1  0.00820000  0.24160000  0.27880000  1
  H  H75  1  0.07480000  0.08330000  0.70500000  1
  H  H76  1  0.89340000  0.09230000  0.69570000  1
  H  H77  1  0.99180000  0.24160000  0.72120000  1
  H  H78  1  0.07480000  0.91670000  0.29500000  1
  H  H79  1  0.89340000  0.90770000  0.30430000  1
  H  H80  1  0.99180000  0.75840000  0.27880000  1
  H  H81  1  0.92520000  0.91670000  0.70500000  1
  H  H82  1  0.10660000  0.90770000  0.69570000  1
  H  H83  1  0.00820000  0.75840000  0.72120000  1
  H  H84  1  0.08330000  0.29500000  0.92520000  1
  H  H85  1  0.09230000  0.30430000  0.10660000  1
  H  H86  1  0.24160000  0.27880000  0.00820000  1
  H  H87  1  0.08330000  0.70500000  0.07480000  1
  H  H88  1  0.09230000  0.69570000  0.89340000  1
  H  H89  1  0.24160000  0.72120000  0.99180000  1
  H  H90  1  0.91670000  0.29500000  0.07480000  1
  H  H91  1  0.90770000  0.30430000  0.89340000  1
  H  H92  1  0.75840000  0.27880000  0.99180000  1
  H  H93  1  0.91670000  0.70500000  0.92520000  1
  H  H94  1  0.90770000  0.69570000  0.10660000  1
  H  H95  1  0.75840000  0.72120000  0.00820000  1
  H  H96  1  0.40875300  0.77706300  0.87887700  1
  H  H97  1  0.37011500  0.72774400  0.91477600  1
  H  H98  1  0.59124700  0.22293700  0.87887700  1
  H  H99  1  0.62988500  0.27225600  0.91477600  1
  H  H100  1  0.59124700  0.77706300  0.12112300  1
  H  H101  1  0.62988500  0.72774400  0.08522370  1
  H  H102  1  0.40875300  0.22293700  0.12112300  1
  H  H103  1  0.37011500  0.27225600  0.08522370  1
  H  H104  1  0.87887700  0.40875300  0.77706300  1
  H  H105  1  0.91477600  0.37011500  0.72774400  1
  H  H106  1  0.87887700  0.59124700  0.22293700  1
  H  H107  1  0.91477600  0.62988500  0.27225600  1
  H  H108  1  0.12112300  0.59124700  0.77706300  1
  H  H109  1  0.08522370  0.62988500  0.72774400  1
  H  H110  1  0.12112300  0.40875300  0.22293700  1
  H  H111  1  0.08522370  0.37011500  0.27225600  1
  H  H112  1  0.72411700  0.85897100  0.42770700  1
  H  H113  1  0.77799500  0.89321100  0.39395900  1
  H  H114  1  0.27588300  0.85897100  0.57229300  1
  H  H115  1  0.22200500  0.89321100  0.60604100  1
  H  H116  1  0.88023800  0.59379700  0.73137500  1
  H  H117  1  0.92897700  0.64163100  0.75483800  1
  H  H118  1  0.40620300  0.26862500  0.88023800  1
  H  H119  1  0.35836900  0.24516200  0.92897700  1
  H  H120  1  0.40620300  0.73137500  0.11976200  1
  H  H121  1  0.35836900  0.75483800  0.07102320  1
  H  H122  1  0.59379700  0.26862500  0.11976200  1
  H  H123  1  0.64163100  0.24516200  0.07102320  1
  H  H124  1  0.59379700  0.73137500  0.88023800  1
  H  H125  1  0.64163100  0.75483800  0.92897700  1
  H  H126  1  0.72411700  0.14102900  0.57229300  1
  H  H127  1  0.77799500  0.10678900  0.60604100  1
  H  H128  1  0.27588300  0.14102900  0.42770700  1
  H  H129  1  0.22200500  0.10678900  0.39395900  1
  H  H130  1  0.26520300  0.92204800  0.36566700  1
  H  H131  1  0.19645200  0.90519100  0.37992300  1
  H  H132  1  0.73479700  0.07795250  0.36566700  1
  H  H133  1  0.80354800  0.09480850  0.37992300  1
  H  H134  1  0.26520300  0.07795250  0.63433300  1
  H  H135  1  0.19645200  0.09480850  0.62007700  1
  H  H136  1  0.73479700  0.92204800  0.63433300  1
  H  H137  1  0.80354800  0.90519100  0.62007700  1
  H  H138  1  0.88023800  0.40620300  0.26862500  1
  H  H139  1  0.92897700  0.35836900  0.24516200  1
  H  H140  1  0.11976200  0.40620300  0.73137500  1
  H  H141  1  0.07102320  0.35836900  0.75483800  1
  H  H142  1  0.11976200  0.59379700  0.26862500  1
  H  H143  1  0.07102320  0.64163100  0.24516200  1
  C  C144  1  0.62290000  0.79470000  0.70630000  1
  C  C145  1  0.46070000  0.79500000  0.60640000  1
  C  C146  1  0.56900000  0.80090000  0.61140000  1
  C  C147  1  0.56550000  0.79540000  0.67180000  1
  C  C148  1  0.39870000  0.77980000  0.69720000  1
  C  C149  1  0.45660000  0.78890000  0.66520000  1
  C  C150  1  0.51010000  0.78640000  0.70000000  1
  C  C151  1  0.51570000  0.80150000  0.57720000  1
  C  C152  1  0.37710000  0.20530000  0.70630000  1
  C  C153  1  0.53930000  0.20500000  0.60640000  1
  C  C154  1  0.43100000  0.19910000  0.61140000  1
  C  C155  1  0.43450000  0.20460000  0.67180000  1
  C  C156  1  0.60130000  0.22020000  0.69720000  1
  C  C157  1  0.54340000  0.21110000  0.66520000  1
  C  C158  1  0.48990000  0.21360000  0.70000000  1
  C  C159  1  0.48430000  0.19850000  0.57720000  1
  C  C160  1  0.37710000  0.79470000  0.29370000  1
  C  C161  1  0.53930000  0.79500000  0.39360000  1
  C  C162  1  0.43100000  0.80090000  0.38860000  1
  C  C163  1  0.43450000  0.79540000  0.32820000  1
  C  C164  1  0.60130000  0.77980000  0.30280000  1
  C  C165  1  0.54340000  0.78890000  0.33480000  1
  C  C166  1  0.48990000  0.78640000  0.30000000  1
  C  C167  1  0.48430000  0.80150000  0.42280000  1
  C  C168  1  0.62290000  0.20530000  0.29370000  1
  C  C169  1  0.46070000  0.20500000  0.39360000  1
  C  C170  1  0.56900000  0.19910000  0.38860000  1
  C  C171  1  0.56550000  0.20460000  0.32820000  1
  C  C172  1  0.39870000  0.22020000  0.30280000  1
  C  C173  1  0.45660000  0.21110000  0.33480000  1
  C  C174  1  0.51010000  0.21360000  0.30000000  1
  C  C175  1  0.51570000  0.19850000  0.42280000  1
  C  C176  1  0.70630000  0.62290000  0.79470000  1
  C  C177  1  0.60640000  0.46070000  0.79500000  1
  C  C178  1  0.61140000  0.56900000  0.80090000  1
  C  C179  1  0.67180000  0.56550000  0.79540000  1
  C  C180  1  0.69720000  0.39870000  0.77980000  1
  C  C181  1  0.66520000  0.45660000  0.78890000  1
  C  C182  1  0.70000000  0.51010000  0.78640000  1
  C  C183  1  0.57720000  0.51570000  0.80150000  1
  C  C184  1  0.70630000  0.37710000  0.20530000  1
  C  C185  1  0.60640000  0.53930000  0.20500000  1
  C  C186  1  0.61140000  0.43100000  0.19910000  1
  C  C187  1  0.67180000  0.43450000  0.20460000  1
  C  C188  1  0.69720000  0.60130000  0.22020000  1
  C  C189  1  0.66520000  0.54340000  0.21110000  1
  C  C190  1  0.70000000  0.48990000  0.21360000  1
  C  C191  1  0.57720000  0.48430000  0.19850000  1
  C  C192  1  0.29370000  0.37710000  0.79470000  1
  C  C193  1  0.39360000  0.53930000  0.79500000  1
  C  C194  1  0.38860000  0.43100000  0.80090000  1
  C  C195  1  0.32820000  0.43450000  0.79540000  1
  C  C196  1  0.30280000  0.60130000  0.77980000  1
  C  C197  1  0.33480000  0.54340000  0.78890000  1
  C  C198  1  0.30000000  0.48990000  0.78640000  1
  C  C199  1  0.42280000  0.48430000  0.80150000  1
  C  C200  1  0.29370000  0.62290000  0.20530000  1
  C  C201  1  0.39360000  0.46070000  0.20500000  1
  C  C202  1  0.38860000  0.56900000  0.19910000  1
  C  C203  1  0.32820000  0.56550000  0.20460000  1
  C  C204  1  0.30280000  0.39870000  0.22020000  1
  C  C205  1  0.33480000  0.45660000  0.21110000  1
  C  C206  1  0.30000000  0.51010000  0.21360000  1
  C  C207  1  0.42280000  0.51570000  0.19850000  1
  C  C208  1  0.79470000  0.70630000  0.62290000  1
  C  C209  1  0.79500000  0.60640000  0.46070000  1
  C  C210  1  0.80090000  0.61140000  0.56900000  1
  C  C211  1  0.79540000  0.67180000  0.56550000  1
  C  C212  1  0.77980000  0.69720000  0.39870000  1
  C  C213  1  0.78890000  0.66520000  0.45660000  1
  C  C214  1  0.78640000  0.70000000  0.51010000  1
  C  C215  1  0.80150000  0.57720000  0.51570000  1
  C  C216  1  0.20530000  0.70630000  0.37710000  1
  C  C217  1  0.20500000  0.60640000  0.53930000  1
  C  C218  1  0.19910000  0.61140000  0.43100000  1
  C  C219  1  0.20460000  0.67180000  0.43450000  1
  C  C220  1  0.22020000  0.69720000  0.60130000  1
  C  C221  1  0.21110000  0.66520000  0.54340000  1
  C  C222  1  0.21360000  0.70000000  0.48990000  1
  C  C223  1  0.19850000  0.57720000  0.48430000  1
  C  C224  1  0.79470000  0.29370000  0.37710000  1
  C  C225  1  0.79500000  0.39360000  0.53930000  1
  C  C226  1  0.80090000  0.38860000  0.43100000  1
  C  C227  1  0.79540000  0.32820000  0.43450000  1
  C  C228  1  0.77980000  0.30280000  0.60130000  1
  C  C229  1  0.78890000  0.33480000  0.54340000  1
  C  C230  1  0.78640000  0.30000000  0.48990000  1
  C  C231  1  0.80150000  0.42280000  0.48430000  1
  C  C232  1  0.20530000  0.29370000  0.62290000  1
  C  C233  1  0.20500000  0.39360000  0.46070000  1
  C  C234  1  0.19910000  0.38860000  0.56900000  1
  C  C235  1  0.20460000  0.32820000  0.56550000  1
  C  C236  1  0.22020000  0.30280000  0.39870000  1
  C  C237  1  0.21110000  0.33480000  0.45660000  1
  C  C238  1  0.21360000  0.30000000  0.51010000  1
  C  C239  1  0.19850000  0.42280000  0.51570000  1
  C  C240  1  0.29470000  0.12290000  0.20630000  1
  C  C241  1  0.29500000  0.96070000  0.10640000  1
  C  C242  1  0.30090000  0.06900000  0.11140000  1
  C  C243  1  0.29540000  0.06550000  0.17180000  1
  C  C244  1  0.27980000  0.89870000  0.19720000  1
  C  C245  1  0.28890000  0.95660000  0.16520000  1
  C  C246  1  0.28640000  0.01010000  0.20000000  1
  C  C247  1  0.30150000  0.01570000  0.07720000  1
  C  C248  1  0.70530000  0.87710000  0.20630000  1
  C  C249  1  0.70500000  0.03930000  0.10640000  1
  C  C250  1  0.69910000  0.93100000  0.11140000  1
  C  C251  1  0.70460000  0.93450000  0.17180000  1
  C  C252  1  0.72020000  0.10130000  0.19720000  1
  C  C253  1  0.71110000  0.04340000  0.16520000  1
  C  C254  1  0.71360000  0.98990000  0.20000000  1
  C  C255  1  0.69850000  0.98430000  0.07720000  1
  C  C256  1  0.29470000  0.87710000  0.79370000  1
  C  C257  1  0.29500000  0.03930000  0.89360000  1
  C  C258  1  0.30090000  0.93100000  0.88860000  1
  C  C259  1  0.29540000  0.93450000  0.82820000  1
  C  C260  1  0.27980000  0.10130000  0.80280000  1
  C  C261  1  0.28890000  0.04340000  0.83480000  1
  C  C262  1  0.28640000  0.98990000  0.80000000  1
  C  C263  1  0.30150000  0.98430000  0.92280000  1
  C  C264  1  0.70530000  0.12290000  0.79370000  1
  C  C265  1  0.70500000  0.96070000  0.89360000  1
  C  C266  1  0.69910000  0.06900000  0.88860000  1
  C  C267  1  0.70460000  0.06550000  0.82820000  1
  C  C268  1  0.72020000  0.89870000  0.80280000  1
  C  C269  1  0.71110000  0.95660000  0.83480000  1
  C  C270  1  0.71360000  0.01010000  0.80000000  1
  C  C271  1  0.69850000  0.01570000  0.92280000  1
  C  C272  1  0.12290000  0.20630000  0.29470000  1
  C  C273  1  0.96070000  0.10640000  0.29500000  1
  C  C274  1  0.06900000  0.11140000  0.30090000  1
  C  C275  1  0.06550000  0.17180000  0.29540000  1
  C  C276  1  0.89870000  0.19720000  0.27980000  1
  C  C277  1  0.95660000  0.16520000  0.28890000  1
  C  C278  1  0.01010000  0.20000000  0.28640000  1
  C  C279  1  0.01570000  0.07720000  0.30150000  1
  C  C280  1  0.87710000  0.20630000  0.70530000  1
  C  C281  1  0.03930000  0.10640000  0.70500000  1
  C  C282  1  0.93100000  0.11140000  0.69910000  1
  C  C283  1  0.93450000  0.17180000  0.70460000  1
  C  C284  1  0.10130000  0.19720000  0.72020000  1
  C  C285  1  0.04340000  0.16520000  0.71110000  1
  C  C286  1  0.98990000  0.20000000  0.71360000  1
  C  C287  1  0.98430000  0.07720000  0.69850000  1
  C  C288  1  0.87710000  0.79370000  0.29470000  1
  C  C289  1  0.03930000  0.89360000  0.29500000  1
  C  C290  1  0.93100000  0.88860000  0.30090000  1
  C  C291  1  0.93450000  0.82820000  0.29540000  1
  C  C292  1  0.10130000  0.80280000  0.27980000  1
  C  C293  1  0.04340000  0.83480000  0.28890000  1
  C  C294  1  0.98990000  0.80000000  0.28640000  1
  C  C295  1  0.98430000  0.92280000  0.30150000  1
  C  C296  1  0.12290000  0.79370000  0.70530000  1
  C  C297  1  0.96070000  0.89360000  0.70500000  1
  C  C298  1  0.06900000  0.88860000  0.69910000  1
  C  C299  1  0.06550000  0.82820000  0.70460000  1
  C  C300  1  0.89870000  0.80280000  0.72020000  1
  C  C301  1  0.95660000  0.83480000  0.71110000  1
  C  C302  1  0.01010000  0.80000000  0.71360000  1
  C  C303  1  0.01570000  0.92280000  0.69850000  1
  C  C304  1  0.20630000  0.29470000  0.12290000  1
  C  C305  1  0.10640000  0.29500000  0.96070000  1
  C  C306  1  0.11140000  0.30090000  0.06900000  1
  C  C307  1  0.17180000  0.29540000  0.06550000  1
  C  C308  1  0.19720000  0.27980000  0.89870000  1
  C  C309  1  0.16520000  0.28890000  0.95660000  1
  C  C310  1  0.20000000  0.28640000  0.01010000  1
  C  C311  1  0.07720000  0.30150000  0.01570000  1
  C  C312  1  0.20630000  0.70530000  0.87710000  1
  C  C313  1  0.10640000  0.70500000  0.03930000  1
  C  C314  1  0.11140000  0.69910000  0.93100000  1
  C  C315  1  0.17180000  0.70460000  0.93450000  1
  C  C316  1  0.19720000  0.72020000  0.10130000  1
  C  C317  1  0.16520000  0.71110000  0.04340000  1
  C  C318  1  0.20000000  0.71360000  0.98990000  1
  C  C319  1  0.07720000  0.69850000  0.98430000  1
  C  C320  1  0.79370000  0.29470000  0.87710000  1
  C  C321  1  0.89360000  0.29500000  0.03930000  1
  C  C322  1  0.88860000  0.30090000  0.93100000  1
  C  C323  1  0.82820000  0.29540000  0.93450000  1
  C  C324  1  0.80280000  0.27980000  0.10130000  1
  C  C325  1  0.83480000  0.28890000  0.04340000  1
  C  C326  1  0.80000000  0.28640000  0.98990000  1
  C  C327  1  0.92280000  0.30150000  0.98430000  1
  C  C328  1  0.79370000  0.70530000  0.12290000  1
  C  C329  1  0.89360000  0.70500000  0.96070000  1
  C  C330  1  0.88860000  0.69910000  0.06900000  1
  C  C331  1  0.82820000  0.70460000  0.06550000  1
  C  C332  1  0.80280000  0.72020000  0.89870000  1
  C  C333  1  0.83480000  0.71110000  0.95660000  1
  C  C334  1  0.80000000  0.71360000  0.01010000  1
  C  C335  1  0.92280000  0.69850000  0.01570000  1
  N  N336  1  0.52250000  0.80770000  0.51580000  1
  N  N337  1  0.47750000  0.19230000  0.51580000  1
  N  N338  1  0.47750000  0.80770000  0.48420000  1
  N  N339  1  0.52250000  0.19230000  0.48420000  1
  N  N340  1  0.51580000  0.52250000  0.80770000  1
  N  N341  1  0.51580000  0.47750000  0.19230000  1
  N  N342  1  0.48420000  0.47750000  0.80770000  1
  N  N343  1  0.48420000  0.52250000  0.19230000  1
  N  N344  1  0.80770000  0.51580000  0.52250000  1
  N  N345  1  0.19230000  0.51580000  0.47750000  1
  N  N346  1  0.80770000  0.48420000  0.47750000  1
  N  N347  1  0.19230000  0.48420000  0.52250000  1
  N  N348  1  0.30770000  0.02250000  0.01580000  1
  N  N349  1  0.69230000  0.97750000  0.01580000  1
  N  N350  1  0.30770000  0.97750000  0.98420000  1
  N  N351  1  0.69230000  0.02250000  0.98420000  1
  N  N352  1  0.02250000  0.01580000  0.30770000  1
  N  N353  1  0.97750000  0.01580000  0.69230000  1
  N  N354  1  0.97750000  0.98420000  0.30770000  1
  N  N355  1  0.02250000  0.98420000  0.69230000  1
  N  N356  1  0.01580000  0.30770000  0.02250000  1
  N  N357  1  0.01580000  0.69230000  0.97750000  1
  N  N358  1  0.98420000  0.30770000  0.97750000  1
  N  N359  1  0.98420000  0.69230000  0.02250000  1
  N  N360  1  0.14010000  0.85990000  0.85990000  1
  N  N361  1  0.39510000  0.60490000  0.60490000  1
  N  N362  1  0.85990000  0.14010000  0.85990000  1
  N  N363  1  0.60490000  0.39510000  0.60490000  1
  N  N364  1  0.85990000  0.85990000  0.14010000  1
  N  N365  1  0.60490000  0.60490000  0.39510000  1
  N  N366  1  0.14010000  0.14010000  0.14010000  1
  N  N367  1  0.39510000  0.39510000  0.39510000  1
  O  O368  1  0.39700000  0.76130000  0.74840000  1
  O  O369  1  0.62220000  0.77910000  0.75880000  1
  O  O370  1  0.35360000  0.79390000  0.66340000  1
  O  O371  1  0.66730000  0.81040000  0.67630000  1
  O  O372  1  0.38920000  0.73750000  0.87610000  1
  O  O373  1  0.60300000  0.23870000  0.74840000  1
  O  O374  1  0.37780000  0.22090000  0.75880000  1
  O  O375  1  0.64640000  0.20610000  0.66340000  1
  O  O376  1  0.33270000  0.18960000  0.67630000  1
  O  O377  1  0.61080000  0.26250000  0.87610000  1
  O  O378  1  0.60300000  0.76130000  0.25160000  1
  O  O379  1  0.37780000  0.77910000  0.24120000  1
  O  O380  1  0.64640000  0.79390000  0.33660000  1
  O  O381  1  0.33270000  0.81040000  0.32370000  1
  O  O382  1  0.61080000  0.73750000  0.12390000  1
  O  O383  1  0.39700000  0.23870000  0.25160000  1
  O  O384  1  0.62220000  0.22090000  0.24120000  1
  O  O385  1  0.35360000  0.20610000  0.33660000  1
  O  O386  1  0.66730000  0.18960000  0.32370000  1
  O  O387  1  0.38920000  0.26250000  0.12390000  1
  O  O388  1  0.74840000  0.39700000  0.76130000  1
  O  O389  1  0.75880000  0.62220000  0.77910000  1
  O  O390  1  0.66340000  0.35360000  0.79390000  1
  O  O391  1  0.67630000  0.66730000  0.81040000  1
  O  O392  1  0.87610000  0.38920000  0.73750000  1
  O  O393  1  0.74840000  0.60300000  0.23870000  1
  O  O394  1  0.75880000  0.37780000  0.22090000  1
  O  O395  1  0.66340000  0.64640000  0.20610000  1
  O  O396  1  0.67630000  0.33270000  0.18960000  1
  O  O397  1  0.87610000  0.61080000  0.26250000  1
  O  O398  1  0.25160000  0.60300000  0.76130000  1
  O  O399  1  0.24120000  0.37780000  0.77910000  1
  O  O400  1  0.33660000  0.64640000  0.79390000  1
  O  O401  1  0.32370000  0.33270000  0.81040000  1
  O  O402  1  0.12390000  0.61080000  0.73750000  1
  O  O403  1  0.25160000  0.39700000  0.23870000  1
  O  O404  1  0.24120000  0.62220000  0.22090000  1
  O  O405  1  0.33660000  0.35360000  0.20610000  1
  O  O406  1  0.32370000  0.66730000  0.18960000  1
  O  O407  1  0.12390000  0.38920000  0.26250000  1
  O  O408  1  0.76130000  0.74840000  0.39700000  1
  O  O409  1  0.77910000  0.75880000  0.62220000  1
  O  O410  1  0.79390000  0.66340000  0.35360000  1
  O  O411  1  0.81040000  0.67630000  0.66730000  1
  O  O412  1  0.73750000  0.87610000  0.38920000  1
  O  O413  1  0.23870000  0.74840000  0.60300000  1
  O  O414  1  0.22090000  0.75880000  0.37780000  1
  O  O415  1  0.20610000  0.66340000  0.64640000  1
  O  O416  1  0.18960000  0.67630000  0.33270000  1
  O  O417  1  0.26250000  0.87610000  0.61080000  1
  O  O418  1  0.76130000  0.25160000  0.60300000  1
  O  O419  1  0.77910000  0.24120000  0.37780000  1
  O  O420  1  0.79390000  0.33660000  0.64640000  1
  O  O421  1  0.81040000  0.32370000  0.33270000  1
  O  O422  1  0.73750000  0.12390000  0.61080000  1
  O  O423  1  0.23870000  0.25160000  0.39700000  1
  O  O424  1  0.22090000  0.24120000  0.62220000  1
  O  O425  1  0.20610000  0.33660000  0.35360000  1
  O  O426  1  0.18960000  0.32370000  0.66730000  1
  O  O427  1  0.26250000  0.12390000  0.38920000  1
  O  O428  1  0.27910000  0.12220000  0.25880000  1
  O  O429  1  0.31040000  0.16730000  0.17630000  1
  O  O430  1  0.23750000  0.88920000  0.37610000  1
  O  O431  1  0.72090000  0.87780000  0.25880000  1
  O  O432  1  0.68960000  0.83270000  0.17630000  1
  O  O433  1  0.76250000  0.11080000  0.37610000  1
  O  O434  1  0.23750000  0.11080000  0.62390000  1
  O  O435  1  0.76250000  0.88920000  0.62390000  1
  O  O436  1  0.12220000  0.25880000  0.27910000  1
  O  O437  1  0.16730000  0.17630000  0.31040000  1
  O  O438  1  0.88920000  0.37610000  0.23750000  1
  O  O439  1  0.87780000  0.25880000  0.72090000  1
  O  O440  1  0.83270000  0.17630000  0.68960000  1
  O  O441  1  0.11080000  0.37610000  0.76250000  1
  O  O442  1  0.11080000  0.62390000  0.23750000  1
  O  O443  1  0.88920000  0.62390000  0.76250000  1
  O  O444  1  0.25880000  0.27910000  0.12220000  1
  O  O445  1  0.17630000  0.31040000  0.16730000  1
  O  O446  1  0.37610000  0.23750000  0.88920000  1
  O  O447  1  0.25880000  0.72090000  0.87780000  1
  O  O448  1  0.17630000  0.68960000  0.83270000  1
  O  O449  1  0.37610000  0.76250000  0.11080000  1
  O  O450  1  0.62390000  0.23750000  0.11080000  1
  O  O451  1  0.62390000  0.76250000  0.88920000  1
  O  O452  1  0.25930000  0.74070000  0.74070000  1
  O  O453  1  0.74070000  0.25930000  0.74070000  1
  O  O454  1  0.74070000  0.74070000  0.25930000  1
  O  O455  1  0.25930000  0.25930000  0.25930000  1
  O  O456  1  0.24070000  0.75930000  0.24070000  1
  O  O457  1  0.75930000  0.24070000  0.24070000  1
  O  O458  1  0.24070000  0.24070000  0.75930000  1
  O  O459  1  0.75930000  0.75930000  0.75930000  1
  O  O460  1  0.17100000  0.90400000  0.84700000  1
  O  O461  1  0.15300000  0.82900000  0.90400000  1
  O  O462  1  0.09600000  0.84700000  0.82900000  1
  O  O463  1  0.44130000  0.62300000  0.63200000  1
  O  O464  1  0.36800000  0.55870000  0.62300000  1
  O  O465  1  0.37700000  0.63200000  0.55870000  1
  O  O466  1  0.82900000  0.09600000  0.84700000  1
  O  O467  1  0.84700000  0.17100000  0.90400000  1
  O  O468  1  0.90400000  0.15300000  0.82900000  1
  O  O469  1  0.55870000  0.37700000  0.63200000  1
  O  O470  1  0.63200000  0.44130000  0.62300000  1
  O  O471  1  0.62300000  0.36800000  0.55870000  1
  O  O472  1  0.82900000  0.90400000  0.15300000  1
  O  O473  1  0.84700000  0.82900000  0.09600000  1
  O  O474  1  0.90400000  0.84700000  0.17100000  1
  O  O475  1  0.55870000  0.62300000  0.36800000  1
  O  O476  1  0.63200000  0.55870000  0.37700000  1
  O  O477  1  0.62300000  0.63200000  0.44130000  1
  O  O478  1  0.17100000  0.09600000  0.15300000  1
  O  O479  1  0.15300000  0.17100000  0.09600000  1
  O  O480  1  0.09600000  0.15300000  0.17100000  1
  O  O481  1  0.44130000  0.37700000  0.36800000  1
  O  O482  1  0.36800000  0.44130000  0.37700000  1
  O  O483  1  0.37700000  0.36800000  0.44130000  1
  O  O484  1  0.26130000  0.89700000  0.24840000  1.0
  O  O485  1  0.29390000  0.85360000  0.16340000  1.0
  O  O486  1  0.73870000  0.10300000  0.24840000  1.0
  O  O487  1  0.70610000  0.14640000  0.16340000  1.0
  O  O488  1  0.26130000  0.10300000  0.75160000  1.0
  O  O489  1  0.27910000  0.87780000  0.74120000  1.0
  O  O490  1  0.29390000  0.14640000  0.83660000  1.0
  O  O491  1  0.31040000  0.83270000  0.82370000  1.0
  O  O492  1  0.73870000  0.89700000  0.75160000  1.0
  O  O493  1  0.72090000  0.12220000  0.74120000  1.0
  O  O494  1  0.70610000  0.85360000  0.83660000  1.0
  O  O495  1  0.68960000  0.16730000  0.82370000  1.0
  O  O496  1  0.89700000  0.24840000  0.26130000  1.0
  O  O497  1  0.85360000  0.16340000  0.29390000  1.0
  O  O498  1  0.10300000  0.24840000  0.73870000  1.0
  O  O499  1  0.14640000  0.16340000  0.70610000  1.0
  O  O500  1  0.10300000  0.75160000  0.26130000  1.0
  O  O501  1  0.87780000  0.74120000  0.27910000  1.0
  O  O502  1  0.14640000  0.83660000  0.29390000  1.0
  O  O503  1  0.83270000  0.82370000  0.31040000  1.0
  O  O504  1  0.89700000  0.75160000  0.73870000  1.0
  O  O505  1  0.12220000  0.74120000  0.72090000  1.0
  O  O506  1  0.85360000  0.83660000  0.70610000  1.0
  O  O507  1  0.16730000  0.82370000  0.68960000  1.0
  O  O508  1  0.24840000  0.26130000  0.89700000  1.0
  O  O509  1  0.16340000  0.29390000  0.85360000  1.0
  O  O510  1  0.24840000  0.73870000  0.10300000  1.0
  O  O511  1  0.16340000  0.70610000  0.14640000  1.0
  O  O512  1  0.75160000  0.26130000  0.10300000  1.0
  O  O513  1  0.74120000  0.27910000  0.87780000  1.0
  O  O514  1  0.83660000  0.29390000  0.14640000  1.0
  O  O515  1  0.82370000  0.31040000  0.83270000  1.0
  O  O516  1  0.75160000  0.73870000  0.89700000  1.0
  O  O517  1  0.74120000  0.72090000  0.12220000  1.0
  O  O518  1  0.83660000  0.70610000  0.85360000  1.0
  O  O519  1  0.82370000  0.68960000  0.16730000  1.0
