# generated using pymatgen
data_CuH6C3IN
_symmetry_space_group_name_H-M   'P 1'
_cell_length_a   15.50200000
_cell_length_b   18.47300000
_cell_length_c   22.18699920
_cell_angle_alpha   114.60135874
_cell_angle_beta   110.44748573
_cell_angle_gamma   90.00000000
_symmetry_Int_Tables_number   1
_chemical_formula_structural   CuH6C3IN
_chemical_formula_sum   'Cu32 H192 C96 I32 N32'
_cell_volume   5333.46912266
_cell_formula_units_Z   32
loop_
 _symmetry_equiv_pos_site_id
 _symmetry_equiv_pos_as_xyz
  1  'x, y, z'
loop_
 _atom_site_type_symbol
 _atom_site_label
 _atom_site_symmetry_multiplicity
 _atom_site_fract_x
 _atom_site_fract_y
 _atom_site_fract_z
 _atom_site_occupancy
  Cu  Cu0  1  0.36908000  0.15582000  0.73816000  1
  Cu  Cu1  1  0.63092000  0.84418000  0.26184000  1
  Cu  Cu2  1  0.33739000  0.24982000  0.67478000  1
  Cu  Cu3  1  0.66261000  0.75018000  0.32522000  1
  Cu  Cu4  1  0.60792000  0.34699000  0.21584000  1
  Cu  Cu5  1  0.39208000  0.65301000  0.78416000  1
  Cu  Cu6  1  0.39014000  0.10673000  0.61046000  1
  Cu  Cu7  1  0.77968000  0.89327000  0.38954000  1
  Cu  Cu8  1  0.60986000  0.89327000  0.38954000  1
  Cu  Cu9  1  0.51505000  0.21793000  0.20122000  1
  Cu  Cu10  1  0.31383000  0.78207000  0.79878000  1
  Cu  Cu11  1  0.48495000  0.78207000  0.79878000  1
  Cu  Cu12  1  0.68617000  0.21793000  0.20122000  1
  Cu  Cu13  1  0.86908000  0.58234000  0.73816000  1
  Cu  Cu14  1  0.83739000  0.42496000  0.67478000  1
  Cu  Cu15  1  0.89208000  0.13115000  0.78416000  1
  Cu  Cu16  1  0.72032000  0.50373000  0.61046000  1
  Cu  Cu17  1  0.89014000  0.50373000  0.61046000  1
  Cu  Cu18  1  0.81383000  0.01671000  0.79878000  1
  Cu  Cu19  1  0.13092000  0.41766000  0.26184000  1
  Cu  Cu20  1  0.16261000  0.57504000  0.32522000  1
  Cu  Cu21  1  0.10792000  0.86885000  0.21584000  1
  Cu  Cu22  1  0.18617000  0.98329000  0.20122000  1
  Cu  Cu23  1  0.54406000  0.22529000  0.08812000  1.0
  Cu  Cu24  1  0.45594000  0.77471000  0.91188000  1.0
  Cu  Cu25  1  0.22032000  0.10673000  0.61046000  1.0
  Cu  Cu26  1  0.95594000  0.13717000  0.91188000  1.0
  Cu  Cu27  1  0.98495000  0.01671000  0.79878000  1.0
  Cu  Cu28  1  0.04406000  0.86283000  0.08812000  1.0
  Cu  Cu29  1  0.10986000  0.49627000  0.38954000  1.0
  Cu  Cu30  1  0.27968000  0.49627000  0.38954000  1.0
  Cu  Cu31  1  0.01505000  0.98329000  0.20122000  1.0
  H  H32  1  0.55410000  0.15990000  0.85100000  1
  H  H33  1  0.70310000  0.84010000  0.14900000  1
  H  H34  1  0.44590000  0.84010000  0.14900000  1
  H  H35  1  0.29690000  0.15990000  0.85100000  1
  H  H36  1  0.49290000  0.07910000  0.83020000  1
  H  H37  1  0.66270000  0.92090000  0.16980000  1
  H  H38  1  0.50710000  0.92090000  0.16980000  1
  H  H39  1  0.33730000  0.07910000  0.83020000  1
  H  H40  1  0.54890000  0.10170000  0.94360000  1
  H  H41  1  0.60530000  0.89830000  0.05640000  1
  H  H42  1  0.45110000  0.89830000  0.05640000  1
  H  H43  1  0.39470000  0.10170000  0.94360000  1
  H  H44  1  0.61120000  0.18200000  0.96440000  1
  H  H45  1  0.64680000  0.81800000  0.03560000  1
  H  H46  1  0.38880000  0.81800000  0.03560000  1
  H  H47  1  0.35320000  0.18200000  0.96440000  1
  H  H48  1  0.38430000  0.37170000  0.62400000  1
  H  H49  1  0.76030000  0.62830000  0.37600000  1
  H  H50  1  0.61570000  0.62830000  0.37600000  1
  H  H51  1  0.23970000  0.37170000  0.62400000  1
  H  H52  1  0.47140000  0.38050000  0.69120000  1
  H  H53  1  0.78020000  0.61950000  0.30880000  1
  H  H54  1  0.52860000  0.61950000  0.30880000  1
  H  H55  1  0.21980000  0.38050000  0.69120000  1
  H  H56  1  0.50440000  0.48780000  0.26980000  1
  H  H57  1  0.23460000  0.51220000  0.73020000  1
  H  H58  1  0.49560000  0.51220000  0.73020000  1
  H  H59  1  0.76540000  0.48780000  0.26980000  1
  H  H60  1  0.58990000  0.49700000  0.33840000  1
  H  H61  1  0.25150000  0.50300000  0.66160000  1
  H  H62  1  0.41010000  0.50300000  0.66160000  1
  H  H63  1  0.74850000  0.49700000  0.33840000  1
  H  H64  1  0.39160000  0.28550000  0.88440000  1
  H  H65  1  0.50720000  0.71450000  0.11560000  1
  H  H66  1  0.60840000  0.71450000  0.11560000  1
  H  H67  1  0.49280000  0.28550000  0.88440000  1
  H  H68  1  0.54960000  0.30770000  0.99800000  1
  H  H69  1  0.55160000  0.69230000  0.00200000  1
  H  H70  1  0.45040000  0.69230000  0.00200000  1
  H  H71  1  0.44840000  0.30770000  0.99800000  1
  H  H72  1  0.35250000  0.40720000  0.80640000  1
  H  H73  1  0.54610000  0.59280000  0.19360000  1
  H  H74  1  0.64750000  0.59280000  0.19360000  1
  H  H75  1  0.45390000  0.40720000  0.80640000  1
  H  H76  1  0.63200000  0.46500000  0.16300000  1
  H  H77  1  0.46900000  0.53500000  0.83700000  1
  H  H78  1  0.36800000  0.53500000  0.83700000  1
  H  H79  1  0.53100000  0.46500000  0.16300000  1
  H  H80  1  0.79690000  0.69110000  0.85100000  1
  H  H81  1  0.05410000  0.69110000  0.85100000  1
  H  H82  1  0.83730000  0.75110000  0.83020000  1
  H  H83  1  0.99290000  0.75110000  0.83020000  1
  H  H84  1  0.89470000  0.84190000  0.94360000  1
  H  H85  1  0.04890000  0.84190000  0.94360000  1
  H  H86  1  0.85320000  0.78240000  0.96440000  1
  H  H87  1  0.11120000  0.78240000  0.96440000  1
  H  H88  1  0.73970000  0.25230000  0.62400000  1
  H  H89  1  0.88430000  0.25230000  0.62400000  1
  H  H90  1  0.71980000  0.31070000  0.69120000  1
  H  H91  1  0.97140000  0.31070000  0.69120000  1
  H  H92  1  0.99560000  0.21800000  0.73020000  1
  H  H93  1  0.73460000  0.21800000  0.73020000  1
  H  H94  1  0.91010000  0.15860000  0.66160000  1
  H  H95  1  0.75150000  0.15860000  0.66160000  1
  H  H96  1  0.69280000  0.86780000  0.87900000  1
  H  H97  1  0.68620000  0.01120000  0.87900000  1
  H  H98  1  0.62010000  0.92560000  0.89220000  1
  H  H99  1  0.77210000  0.96660000  0.89220000  1
  H  H100  1  0.59660000  0.76800000  0.69620000  1
  H  H101  1  0.59960000  0.92820000  0.69620000  1
  H  H102  1  0.66330000  0.76110000  0.76500000  1
  H  H103  1  0.60170000  0.00390000  0.76500000  1
  H  H104  1  0.51040000  0.93590000  0.78220000  1
  H  H105  1  0.77180000  0.84630000  0.78220000  1
  H  H106  1  0.49430000  0.86590000  0.70640000  1
  H  H107  1  0.71210000  0.84050000  0.70640000  1
  H  H108  1  0.99280000  0.59890000  0.88440000  1
  H  H109  1  0.89160000  0.59890000  0.88440000  1
  H  H110  1  0.94840000  0.69030000  0.99800000  1
  H  H111  1  0.04960000  0.69030000  0.99800000  1
  H  H112  1  0.95390000  0.39920000  0.80640000  1
  H  H113  1  0.85250000  0.39920000  0.80640000  1
  H  H114  1  0.86800000  0.30200000  0.83700000  1
  H  H115  1  0.96900000  0.30200000  0.83700000  1
  H  H116  1  0.94590000  0.30890000  0.14900000  1
  H  H117  1  0.20310000  0.30890000  0.14900000  1
  H  H118  1  0.00710000  0.24890000  0.16980000  1
  H  H119  1  0.16270000  0.24890000  0.16980000  1
  H  H120  1  0.95110000  0.15810000  0.05640000  1
  H  H121  1  0.10530000  0.15810000  0.05640000  1
  H  H122  1  0.88880000  0.21760000  0.03560000  1
  H  H123  1  0.14680000  0.21760000  0.03560000  1
  H  H124  1  0.11570000  0.74770000  0.37600000  1
  H  H125  1  0.26030000  0.74770000  0.37600000  1
  H  H126  1  0.02860000  0.68930000  0.30880000  1
  H  H127  1  0.28020000  0.68930000  0.30880000  1
  H  H128  1  0.26540000  0.78200000  0.26980000  1
  H  H129  1  0.00440000  0.78200000  0.26980000  1
  H  H130  1  0.24850000  0.84140000  0.33840000  1
  H  H131  1  0.08990000  0.84140000  0.33840000  1
  H  H132  1  0.30720000  0.13220000  0.12100000  1
  H  H133  1  0.31380000  0.98880000  0.12100000  1
  H  H134  1  0.37990000  0.07440000  0.10780000  1
  H  H135  1  0.22790000  0.03340000  0.10780000  1
  H  H136  1  0.40340000  0.23200000  0.30380000  1
  H  H137  1  0.40040000  0.07180000  0.30380000  1
  H  H138  1  0.33670000  0.23890000  0.23500000  1
  H  H139  1  0.39830000  0.99610000  0.23500000  1
  H  H140  1  0.48960000  0.06410000  0.21780000  1
  H  H141  1  0.22820000  0.15370000  0.21780000  1
  H  H142  1  0.50570000  0.13410000  0.29360000  1
  H  H143  1  0.28790000  0.15950000  0.29360000  1
  H  H144  1  0.10840000  0.40110000  0.11560000  1
  H  H145  1  0.00720000  0.40110000  0.11560000  1
  H  H146  1  0.95040000  0.30970000  0.00200000  1
  H  H147  1  0.05160000  0.30970000  0.00200000  1
  H  H148  1  0.14750000  0.60080000  0.19360000  1
  H  H149  1  0.04610000  0.60080000  0.19360000  1
  H  H150  1  0.03100000  0.69800000  0.16300000  1
  H  H151  1  0.13200000  0.69800000  0.16300000  1
  H  H152  1  0.18620000  0.86780000  0.87900000  1
  H  H153  1  0.19280000  0.01120000  0.87900000  1
  H  H154  1  0.27210000  0.92560000  0.89220000  1
  H  H155  1  0.12010000  0.96660000  0.89220000  1
  H  H156  1  0.09960000  0.76800000  0.69620000  1
  H  H157  1  0.09660000  0.92820000  0.69620000  1
  H  H158  1  0.10170000  0.76110000  0.76500000  1
  H  H159  1  0.16330000  0.00390000  0.76500000  1
  H  H160  1  0.27180000  0.93590000  0.78220000  1
  H  H161  1  0.01040000  0.84630000  0.78220000  1
  H  H162  1  0.21210000  0.86590000  0.70640000  1
  H  H163  1  0.99430000  0.84050000  0.70640000  1
  H  H164  1  0.81380000  0.13220000  0.12100000  1
  H  H165  1  0.80720000  0.98880000  0.12100000  1
  H  H166  1  0.72790000  0.07440000  0.10780000  1
  H  H167  1  0.87990000  0.03340000  0.10780000  1
  H  H168  1  0.90040000  0.23200000  0.30380000  1
  H  H169  1  0.90340000  0.07180000  0.30380000  1
  H  H170  1  0.89830000  0.23890000  0.23500000  1
  H  H171  1  0.83670000  0.99610000  0.23500000  1
  H  H172  1  0.72820000  0.06410000  0.21780000  1
  H  H173  1  0.98960000  0.15370000  0.21780000  1
  H  H174  1  0.78790000  0.13410000  0.29360000  1
  H  H175  1  0.00570000  0.15950000  0.29360000  1
  H  H176  1  0.34467500  0.01141600  0.44989200  1
  H  H177  1  0.42522900  0.09908100  0.47911200  1
  H  H178  1  0.15532500  0.56152800  0.55010800  1
  H  H179  1  0.07477110  0.61996800  0.52088800  1
  H  H180  1  0.05388310  0.09908100  0.47911200  1
  H  H181  1  0.10521700  0.01141600  0.44989200  1
  H  H182  1  0.44611700  0.61996800  0.52088800  1
  H  H183  1  0.39478300  0.56152800  0.55010800  1
  H  H184  1  0.87526900  0.06584400  0.51482900  1
  H  H185  1  0.89214800  0.99571400  0.55194200  1
  H  H186  1  0.62473100  0.55101100  0.48517100  1
  H  H187  1  0.60785200  0.44376800  0.44805800  1
  H  H188  1  0.65979400  0.99571400  0.55194200  1
  H  H189  1  0.63956000  0.06584400  0.51482900  1
  H  H190  1  0.84020600  0.44376800  0.44805800  1
  H  H191  1  0.86044000  0.55101100  0.48517100  1
  H  H192  1  0.47717400  0.94078100  0.57100900  1
  H  H193  1  0.37410800  0.92238900  0.49477400  1
  H  H194  1  0.02282590  0.36977100  0.42899100  1
  H  H195  1  0.12589200  0.42761600  0.50522600  1
  H  H196  1  0.01364750  0.62710700  0.60317700  1
  H  H197  1  0.08879710  0.56295300  0.62807300  1
  H  H198  1  0.56934500  0.12910400  0.58654500  1
  H  H199  1  0.58408000  0.05579200  0.62012300  1
  H  H200  1  0.93065550  0.54255500  0.41345500  1
  H  H201  1  0.91592030  0.43566700  0.37987700  1
  H  H202  1  0.03604300  0.05579200  0.62012300  1
  H  H203  1  0.01720010  0.12910400  0.58654500  1
  H  H204  1  0.46395700  0.43566700  0.37987700  1
  H  H205  1  0.48280000  0.54255500  0.41345500  1
  H  H206  1  0.95628810  0.86647400  0.50100800  1
  H  H207  1  0.98394170  0.84669300  0.42487700  1
  H  H208  1  0.54371200  0.36546200  0.49899200  1
  H  H209  1  0.51605800  0.42181300  0.57512300  1
  H  H210  1  0.44093500  0.84669300  0.42487700  1
  H  H211  1  0.54472000  0.86647400  0.50100800  1
  H  H212  1  0.05906490  0.42181300  0.57512300  1
  H  H213  1  0.95528020  0.36546200  0.49899200  1
  H  H214  1  0.12066600  0.92238900  0.49477400  1
  H  H215  1  0.09383480  0.94078100  0.57100900  1
  H  H216  1  0.37933400  0.42761600  0.50522600  1
  H  H217  1  0.40616500  0.36977100  0.42899100  1
  H  H218  1  0.96072370  0.93487900  0.37192700  1
  H  H219  1  0.91047080  0.02393300  0.39682300  1
  H  H220  1  0.53927600  0.56295300  0.62807300  1
  H  H221  1  0.58952900  0.62710700  0.60317700  1
  H  H222  1  0.48635300  0.02393300  0.39682300  1
  H  H223  1  0.41120300  0.93487900  0.37192700  1
  C  C224  1  0.44670000  0.26050000  0.89340000  1
  C  C225  1  0.55330000  0.73950000  0.10660000  1
  C  C226  1  0.48710000  0.27650000  0.97420000  1
  C  C227  1  0.51290000  0.72350000  0.02580000  1
  C  C228  1  0.50730000  0.13690000  0.86080000  1
  C  C229  1  0.64650000  0.86310000  0.13920000  1
  C  C230  1  0.49270000  0.86310000  0.13920000  1
  C  C231  1  0.35350000  0.13690000  0.86080000  1
  C  C232  1  0.54760000  0.15290000  0.94120000  1
  C  C233  1  0.60640000  0.84710000  0.05880000  1
  C  C234  1  0.45240000  0.84710000  0.05880000  1
  C  C235  1  0.39360000  0.15290000  0.94120000  1
  C  C236  1  0.39340000  0.42100000  0.78680000  1
  C  C237  1  0.60660000  0.57900000  0.21320000  1
  C  C238  1  0.59610000  0.48920000  0.19220000  1
  C  C239  1  0.40390000  0.51080000  0.80780000  1
  C  C240  1  0.41840000  0.03740000  0.47280000  1
  C  C241  1  0.05440000  0.03740000  0.47280000  1
  C  C242  1  0.91850000  0.02250000  0.52500000  1
  C  C243  1  0.60650000  0.02250000  0.52500000  1
  C  C244  1  0.44860000  0.94660000  0.52120000  1
  C  C245  1  0.07260000  0.94660000  0.52120000  1
  C  C246  1  0.95440000  0.98640000  0.41680000  1
  C  C247  1  0.46240000  0.98640000  0.41680000  1
  C  C248  1  0.55550000  0.06500000  0.57200000  1
  C  C249  1  0.01650000  0.06500000  0.57200000  1
  C  C250  1  0.98110000  0.89390000  0.47380000  1
  C  C251  1  0.49270000  0.89390000  0.47380000  1
  C  C252  1  0.41180000  0.39800000  0.67600000  1
  C  C253  1  0.73580000  0.60200000  0.32400000  1
  C  C254  1  0.58820000  0.60200000  0.32400000  1
  C  C255  1  0.26420000  0.39800000  0.67600000  1
  C  C256  1  0.57050000  0.50900000  0.29740000  1
  C  C257  1  0.27310000  0.49100000  0.70260000  1
  C  C258  1  0.42950000  0.49100000  0.70260000  1
  C  C259  1  0.72690000  0.50900000  0.29740000  1
  C  C260  1  0.94670000  0.63290000  0.89340000  1
  C  C261  1  0.98710000  0.69770000  0.97420000  1
  C  C262  1  0.85350000  0.72390000  0.86080000  1
  C  C263  1  0.00730000  0.72390000  0.86080000  1
  C  C264  1  0.89360000  0.78830000  0.94120000  1
  C  C265  1  0.04760000  0.78830000  0.94120000  1
  C  C266  1  0.89340000  0.36580000  0.78680000  1
  C  C267  1  0.90390000  0.29700000  0.80780000  1
  C  C268  1  0.44560000  0.56460000  0.52720000  1
  C  C269  1  0.58150000  0.49750000  0.47500000  1
  C  C270  1  0.42740000  0.42540000  0.47880000  1
  C  C271  1  0.54560000  0.56960000  0.58320000  1
  C  C272  1  0.48350000  0.49300000  0.42800000  1
  C  C273  1  0.51890000  0.42010000  0.52620000  1
  C  C274  1  0.65290000  0.90040000  0.86060000  1
  C  C275  1  0.70770000  0.96020000  0.86060000  1
  C  C276  1  0.63720000  0.79870000  0.74640000  1
  C  C277  1  0.60920000  0.94770000  0.74640000  1
  C  C278  1  0.54140000  0.89970000  0.75360000  1
  C  C279  1  0.71220000  0.85390000  0.75360000  1
  C  C280  1  0.76420000  0.27800000  0.67600000  1
  C  C281  1  0.91180000  0.27800000  0.67600000  1
  C  C282  1  0.92950000  0.21160000  0.70260000  1
  C  C283  1  0.77310000  0.21160000  0.70260000  1
  C  C284  1  0.05330000  0.36710000  0.10660000  1
  C  C285  1  0.01290000  0.30230000  0.02580000  1
  C  C286  1  0.99270000  0.27610000  0.13920000  1
  C  C287  1  0.14650000  0.27610000  0.13920000  1
  C  C288  1  0.95240000  0.21170000  0.05880000  1
  C  C289  1  0.10640000  0.21170000  0.05880000  1
  C  C290  1  0.10660000  0.63420000  0.21320000  1
  C  C291  1  0.09610000  0.70300000  0.19220000  1
  C  C292  1  0.34710000  0.09960000  0.13940000  1
  C  C293  1  0.29230000  0.03980000  0.13940000  1
  C  C294  1  0.36280000  0.20130000  0.25360000  1
  C  C295  1  0.39080000  0.05230000  0.25360000  1
  C  C296  1  0.45860000  0.10030000  0.24640000  1
  C  C297  1  0.28780000  0.14610000  0.24640000  1
  C  C298  1  0.08820000  0.72200000  0.32400000  1
  C  C299  1  0.23580000  0.72200000  0.32400000  1
  C  C300  1  0.22690000  0.78840000  0.29740000  1
  C  C301  1  0.07050000  0.78840000  0.29740000  1
  C  C302  1  0.20770000  0.90040000  0.86060000  1
  C  C303  1  0.15290000  0.96020000  0.86060000  1
  C  C304  1  0.10920000  0.79870000  0.74640000  1
  C  C305  1  0.13720000  0.94770000  0.74640000  1
  C  C306  1  0.21220000  0.89970000  0.75360000  1
  C  C307  1  0.04140000  0.85390000  0.75360000  1
  C  C308  1  0.79230000  0.09960000  0.13940000  1
  C  C309  1  0.84710000  0.03980000  0.13940000  1
  C  C310  1  0.89080000  0.20130000  0.25360000  1
  C  C311  1  0.86280000  0.05230000  0.25360000  1
  C  C312  1  0.78780000  0.10030000  0.24640000  1
  C  C313  1  0.95860000  0.14610000  0.24640000  1
  C  C314  1  0.08160000  0.56460000  0.52720000  1
  C  C315  1  0.89350000  0.49750000  0.47500000  1
  C  C316  1  0.05140000  0.42540000  0.47880000  1
  C  C317  1  0.03760000  0.56960000  0.58320000  1
  C  C318  1  0.94450000  0.49300000  0.42800000  1
  C  C319  1  0.00730000  0.42010000  0.52620000  1
  I  I320  1  0.32321000  0.00019000  0.64642000  1
  I  I321  1  0.67679000  0.99981000  0.35358000  1
  I  I322  1  0.26679000  0.17219000  0.53358000  1
  I  I323  1  0.73321000  0.82781000  0.46642000  1
  I  I324  1  0.51624000  0.22716000  0.72990000  1
  I  I325  1  0.78634000  0.77284000  0.27010000  1
  I  I326  1  0.48376000  0.77284000  0.27010000  1
  I  I327  1  0.21366000  0.22716000  0.72990000  1
  I  I328  1  0.41795000  0.30510000  0.13824000  1
  I  I329  1  0.27971000  0.69490000  0.86176000  1
  I  I330  1  0.58205000  0.69490000  0.86176000  1
  I  I331  1  0.72029000  0.30510000  0.13824000  1
  I  I332  1  0.82321000  0.64623000  0.64642000  1
  I  I333  1  0.76679000  0.36139000  0.53358000  1
  I  I334  1  0.95156000  0.99142000  0.90312000  1
  I  I335  1  0.83848000  0.98111000  0.67696000  1
  I  I336  1  0.71366000  0.50274000  0.72990000  1
  I  I337  1  0.77971000  0.16686000  0.86176000  1
  I  I338  1  0.17679000  0.35377000  0.35358000  1
  I  I339  1  0.23321000  0.63861000  0.46642000  1
  I  I340  1  0.04844000  0.00858000  0.09688000  1
  I  I341  1  0.16152000  0.01889000  0.32304000  1
  I  I342  1  0.28634000  0.49726000  0.27010000  1
  I  I343  1  0.22029000  0.83314000  0.13824000  1
  I  I344  1  0.54844000  0.08830000  0.09688000  1
  I  I345  1  0.45156000  0.91170000  0.90312000  1
  I  I346  1  0.66152000  0.30415000  0.32304000  1
  I  I347  1  0.33848000  0.69585000  0.67696000  1
  I  I348  1  0.01624000  0.50274000  0.72990000  1
  I  I349  1  0.08205000  0.16686000  0.86176000  1
  I  I350  1  0.98376000  0.49726000  0.27010000  1
  I  I351  1  0.91795000  0.83314000  0.13824000  1
  N  N352  1  0.42180000  0.17260000  0.84360000  1
  N  N353  1  0.57820000  0.82740000  0.15640000  1
  N  N354  1  0.35140000  0.37280000  0.70280000  1
  N  N355  1  0.64860000  0.62720000  0.29720000  1
  N  N356  1  0.62560000  0.47000000  0.25120000  1
  N  N357  1  0.37440000  0.53000000  0.74880000  1
  N  N358  1  0.45810000  0.04120000  0.54340000  1
  N  N359  1  0.91470000  0.95880000  0.45660000  1
  N  N360  1  0.54190000  0.95880000  0.45660000  1
  N  N361  1  0.92180000  0.67100000  0.84360000  1
  N  N362  1  0.85140000  0.33000000  0.70280000  1
  N  N363  1  0.87440000  0.21880000  0.74880000  1
  N  N364  1  0.58530000  0.50220000  0.54340000  1
  N  N365  1  0.58430000  0.84800000  0.78720000  1
  N  N366  1  0.70290000  0.93920000  0.78720000  1
  N  N367  1  0.07820000  0.32900000  0.15640000  1
  N  N368  1  0.14860000  0.67000000  0.29720000  1
  N  N369  1  0.12560000  0.78120000  0.25120000  1
  N  N370  1  0.41570000  0.15200000  0.21280000  1
  N  N371  1  0.29710000  0.06080000  0.21280000  1
  N  N372  1  0.20290000  0.84800000  0.78720000  1
  N  N373  1  0.79710000  0.15200000  0.21280000  1
  N  N374  1  0.95810000  0.50220000  0.54340000  1
  N  N375  1  0.49000000  0.20100000  0.98000000  1.0
  N  N376  1  0.51000000  0.79900000  0.02000000  1.0
  N  N377  1  0.08530000  0.04120000  0.54340000  1.0
  N  N378  1  0.99000000  0.77900000  0.98000000  1.0
  N  N379  1  0.41470000  0.49780000  0.45660000  1.0
  N  N380  1  0.01000000  0.22100000  0.02000000  1.0
  N  N381  1  0.08430000  0.93920000  0.78720000  1.0
  N  N382  1  0.91570000  0.06080000  0.21280000  1.0
  N  N383  1  0.04190000  0.49780000  0.45660000  1.0
