# generated using pymatgen
data_Zr3H17C24N3O16
_symmetry_space_group_name_H-M   'P 1'
_cell_length_a   14.81740000
_cell_length_b   14.81740000
_cell_length_c   14.81740000
_cell_angle_alpha   60.00000000
_cell_angle_beta   60.00000000
_cell_angle_gamma   60.00000000
_symmetry_Int_Tables_number   1
_chemical_formula_structural   Zr3H17C24N3O16
_chemical_formula_sum   'Zr6 H34 C48 N6 O32'
_cell_volume   2300.38759518
_cell_formula_units_Z   2
loop_
 _symmetry_equiv_pos_site_id
 _symmetry_equiv_pos_as_xyz
  1  'x, y, z'
loop_
 _atom_site_type_symbol
 _atom_site_label
 _atom_site_symmetry_multiplicity
 _atom_site_fract_x
 _atom_site_fract_y
 _atom_site_fract_z
 _atom_site_occupancy
  Zr  Zr0  1  0.37630000  0.37630000  0.62370000  1.0
  Zr  Zr1  1  0.62370000  0.37630000  0.62370000  1.0
  Zr  Zr2  1  0.37630000  0.62370000  0.62370000  1.0
  Zr  Zr3  1  0.62370000  0.62370000  0.37630000  1.0
  Zr  Zr4  1  0.37630000  0.62370000  0.37630000  1.0
  Zr  Zr5  1  0.62370000  0.37630000  0.37630000  1.0
  H  H6  1  0.35587000  0.90923000  0.09077000  1
  H  H7  1  0.90923000  0.35587000  0.64413000  1
  H  H8  1  0.35587000  0.64413000  0.90923000  1
  H  H9  1  0.90923000  0.09077000  0.35587000  1
  H  H10  1  0.64413000  0.35587000  0.09077000  1
  H  H11  1  0.09077000  0.35587000  0.90923000  1
  H  H12  1  0.64413000  0.90923000  0.35587000  1
  H  H13  1  0.35587000  0.09077000  0.64413000  1
  H  H14  1  0.35587000  0.90923000  0.64413000  1
  H  H15  1  0.90923000  0.35587000  0.09077000  1
  H  H16  1  0.09077000  0.64413000  0.90923000  1
  H  H17  1  0.09077000  0.90923000  0.35587000  1
  H  H18  1  0.35587000  0.64413000  0.09077000  1
  H  H19  1  0.90923000  0.09077000  0.64413000  1
  H  H20  1  0.90923000  0.64413000  0.35587000  1
  H  H21  1  0.35587000  0.09077000  0.90923000  1
  H  H22  1  0.09077000  0.35587000  0.64413000  1
  H  H23  1  0.64413000  0.90923000  0.09077000  1
  H  H24  1  0.39036000  0.39367000  0.78737000  1
  H  H25  1  0.41513000  0.41138000  0.38545000  1
  H  H26  1  0.78007000  0.42897000  0.38914000  1
  H  H27  1  0.40804000  0.78515000  0.40387000  1
  H  H28  1  0.17186200  0.66116200  0.33883800  1
  H  H29  1  0.07019480  0.72232400  0.27767600  1
  H  H30  1  0.66116000  0.17186200  0.33883800  1
  H  H31  1  0.72231920  0.07019480  0.27767600  1
  H  H32  1  0.17186000  0.82814000  0.66116200  1
  H  H33  1  0.07019000  0.92981000  0.72232400  1
  H  H34  1  0.66116200  0.17186200  0.82813800  1
  H  H35  1  0.72232380  0.07019500  0.92980520  1
  H  H36  1  0.82813800  0.66116200  0.17186200  1
  H  H37  1  0.92980520  0.72232400  0.07019480  1
  H  H38  1  0.66116200  0.33883800  0.82813800  1
  H  H39  1  0.72232380  0.27767600  0.92980520  1
  C  C40  1  0.57750000  0.05230000  0.94770000  1
  C  C41  1  0.05230000  0.57750000  0.42250000  1
  C  C42  1  0.42250000  0.94770000  0.05230000  1
  C  C43  1  0.94770000  0.42250000  0.57750000  1
  C  C44  1  0.42250000  0.57750000  0.94770000  1
  C  C45  1  0.94770000  0.05230000  0.42250000  1
  C  C46  1  0.57750000  0.42250000  0.05230000  1
  C  C47  1  0.05230000  0.94770000  0.57750000  1
  C  C48  1  0.05230000  0.42250000  0.94770000  1
  C  C49  1  0.57750000  0.94770000  0.42250000  1
  C  C50  1  0.94770000  0.57750000  0.05230000  1
  C  C51  1  0.42250000  0.05230000  0.57750000  1
  C  C52  1  0.42250000  0.94770000  0.57750000  1
  C  C53  1  0.94770000  0.42250000  0.05230000  1
  C  C54  1  0.57750000  0.05230000  0.42250000  1
  C  C55  1  0.05230000  0.57750000  0.94770000  1
  C  C56  1  0.57750000  0.42250000  0.94770000  1
  C  C57  1  0.05230000  0.94770000  0.42250000  1
  C  C58  1  0.42250000  0.57750000  0.05230000  1
  C  C59  1  0.94770000  0.05230000  0.57750000  1
  C  C60  1  0.94770000  0.57750000  0.42250000  1
  C  C61  1  0.42250000  0.05230000  0.94770000  1
  C  C62  1  0.05230000  0.42250000  0.57750000  1
  C  C63  1  0.57750000  0.94770000  0.05230000  1
  C  C64  1  0.50000000  0.18740000  0.81260000  1
  C  C65  1  0.50000000  0.09340000  0.90660000  1
  C  C66  1  0.18740000  0.50000000  0.50000000  1
  C  C67  1  0.09340000  0.50000000  0.50000000  1
  C  C68  1  0.50000000  0.81260000  0.18740000  1
  C  C69  1  0.50000000  0.90660000  0.09340000  1
  C  C70  1  0.81260000  0.50000000  0.50000000  1
  C  C71  1  0.90660000  0.50000000  0.50000000  1
  C  C72  1  0.50000000  0.50000000  0.81260000  1
  C  C73  1  0.50000000  0.50000000  0.90660000  1
  C  C74  1  0.81260000  0.18740000  0.50000000  1
  C  C75  1  0.90660000  0.09340000  0.50000000  1
  C  C76  1  0.50000000  0.50000000  0.18740000  1
  C  C77  1  0.50000000  0.50000000  0.09340000  1
  C  C78  1  0.18740000  0.81260000  0.50000000  1
  C  C79  1  0.09340000  0.90660000  0.50000000  1
  C  C80  1  0.18740000  0.50000000  0.81260000  1
  C  C81  1  0.09340000  0.50000000  0.90660000  1
  C  C82  1  0.50000000  0.81260000  0.50000000  1
  C  C83  1  0.50000000  0.90660000  0.50000000  1
  C  C84  1  0.81260000  0.50000000  0.18740000  1
  C  C85  1  0.90660000  0.50000000  0.09340000  1
  C  C86  1  0.50000000  0.18740000  0.50000000  1
  C  C87  1  0.50000000  0.09340000  0.50000000  1
  N  N88  1  0.10337200  0.66239400  0.33760600  1
  N  N89  1  0.66239200  0.10337200  0.33760600  1
  N  N90  1  0.10337000  0.89663000  0.66239400  1
  N  N91  1  0.66239400  0.10337200  0.89662800  1
  N  N92  1  0.89662800  0.66239400  0.10337200  1
  N  N93  1  0.66239400  0.33760600  0.89662800  1
  O  O94  1  0.42880000  0.42880000  0.71360000  1
  O  O95  1  0.42880000  0.42880000  0.42880000  1
  O  O96  1  0.42880000  0.71360000  0.42880000  1
  O  O97  1  0.71360000  0.42880000  0.42880000  1
  O  O98  1  0.57120000  0.57120000  0.57120000  1
  O  O99  1  0.57120000  0.57120000  0.28640000  1
  O  O100  1  0.57120000  0.28640000  0.57120000  1
  O  O101  1  0.28640000  0.57120000  0.57120000  1
  O  O102  1  0.42450000  0.22690000  0.77310000  1
  O  O103  1  0.22690000  0.42450000  0.57550000  1
  O  O104  1  0.57550000  0.42450000  0.77310000  1
  O  O105  1  0.77310000  0.22690000  0.57550000  1
  O  O106  1  0.22690000  0.57550000  0.77310000  1
  O  O107  1  0.42450000  0.77310000  0.57550000  1
  O  O108  1  0.57550000  0.77310000  0.42450000  1
  O  O109  1  0.22690000  0.42450000  0.77310000  1
  O  O110  1  0.42450000  0.57550000  0.77310000  1
  O  O111  1  0.77310000  0.22690000  0.42450000  1
  O  O112  1  0.57550000  0.22690000  0.77310000  1
  O  O113  1  0.22690000  0.57550000  0.42450000  1
  O  O114  1  0.57550000  0.77310000  0.22690000  1.0
  O  O115  1  0.77310000  0.57550000  0.42450000  1.0
  O  O116  1  0.42450000  0.57550000  0.22690000  1.0
  O  O117  1  0.22690000  0.77310000  0.42450000  1.0
  O  O118  1  0.77310000  0.42450000  0.22690000  1.0
  O  O119  1  0.57550000  0.22690000  0.42450000  1.0
  O  O120  1  0.77310000  0.57550000  0.22690000  1.0
  O  O121  1  0.42450000  0.22690000  0.57550000  1.0
  O  O122  1  0.22690000  0.77310000  0.57550000  1.0
  O  O123  1  0.57550000  0.42450000  0.22690000  1.0
  O  O124  1  0.77270000  0.42310000  0.57582000  1.0
  O  O125  1  0.42450000  0.77310000  0.22690000  1.0
