# generated using pymatgen
data_Ti4H17C24(NO6)3
_symmetry_space_group_name_H-M   'P 1'
_cell_length_a   18.12719000
_cell_length_b   19.08216000
_cell_length_c   19.08216000
_cell_angle_alpha   90.00000000
_cell_angle_beta   90.00000000
_cell_angle_gamma   90.00000000
_symmetry_Int_Tables_number   1
_chemical_formula_structural   Ti4H17C24(NO6)3
_chemical_formula_sum   'Ti16 H68 C96 N12 O72'
_cell_volume   6600.63249070
_cell_formula_units_Z   4
loop_
 _symmetry_equiv_pos_site_id
 _symmetry_equiv_pos_as_xyz
  1  'x, y, z'
loop_
 _atom_site_type_symbol
 _atom_site_label
 _atom_site_symmetry_multiplicity
 _atom_site_fract_x
 _atom_site_fract_y
 _atom_site_fract_z
 _atom_site_occupancy
  Ti  Ti0  1  0.50000000  0.78984000  0.07187000  1.0
  Ti  Ti1  1  0.50000000  0.21016000  0.92813000  1.0
  Ti  Ti2  1  0.50000000  0.92813000  0.78984000  1.0
  Ti  Ti3  1  0.50000000  0.07187000  0.21016000  1.0
  Ti  Ti4  1  0.50000000  0.92813000  0.21016000  1.0
  Ti  Ti5  1  0.50000000  0.07187000  0.78984000  1.0
  Ti  Ti6  1  0.50000000  0.78984000  0.92813000  1.0
  Ti  Ti7  1  0.50000000  0.21016000  0.07187000  1.0
  Ti  Ti8  1  0.00000000  0.28984000  0.57187000  1.0
  Ti  Ti9  1  0.00000000  0.57187000  0.71016000  1.0
  Ti  Ti10  1  0.00000000  0.42813000  0.71016000  1.0
  Ti  Ti11  1  1.00000000  0.28984000  0.42813000  1.0
  Ti  Ti12  1  0.00000000  0.71016000  0.42813000  1.0
  Ti  Ti13  1  1.00000000  0.42813000  0.28984000  1.0
  Ti  Ti14  1  1.00000000  0.57187000  0.28984000  1.0
  Ti  Ti15  1  0.00000000  0.71016000  0.57187000  1.0
  H  H16  1  0.68902000  0.85176000  0.69247000  1
  H  H17  1  0.31098000  0.14824000  0.30753000  1
  H  H18  1  0.31098000  0.85176000  0.69247000  1
  H  H19  1  0.68902000  0.14824000  0.30753000  1
  H  H20  1  0.31098000  0.30753000  0.85176000  1
  H  H21  1  0.31098000  0.69247000  0.14824000  1
  H  H22  1  0.31098000  0.14824000  0.69247000  1
  H  H23  1  0.68902000  0.85176000  0.30753000  1
  H  H24  1  0.68902000  0.14824000  0.69247000  1
  H  H25  1  0.31098000  0.85176000  0.30753000  1
  H  H26  1  0.31098000  0.30753000  0.14824000  1
  H  H27  1  0.68902000  0.69247000  0.85176000  1
  H  H28  1  0.68902000  0.30753000  0.14824000  1
  H  H29  1  0.31098000  0.69247000  0.85176000  1
  H  H30  1  0.18902000  0.80753000  0.35176000  1
  H  H31  1  0.81098000  0.19247000  0.64824000  1
  H  H32  1  0.81098000  0.80753000  0.35176000  1
  H  H33  1  0.81098000  0.35176000  0.19247000  1
  H  H34  1  0.18902000  0.35176000  0.19247000  1
  H  H35  1  0.18902000  0.80753000  0.64824000  1
  H  H36  1  0.81098000  0.80753000  0.64824000  1
  H  H37  1  0.81098000  0.35176000  0.80753000  1
  H  H38  1  0.18902000  0.35176000  0.80753000  1
  H  H39  1  0.81098000  0.64824000  0.19247000  1
  H  H40  1  0.00000000  0.42620000  0.57380000  1
  H  H41  1  0.00000000  0.57380000  0.42620000  1
  H  H42  1  0.00000000  0.42620000  0.42620000  1
  H  H43  1  0.00000000  0.57380000  0.57380000  1
  H  H44  1  0.50000000  0.92620000  0.07380000  1
  H  H45  1  0.50000000  0.07380000  0.92620000  1
  H  H46  1  0.50000000  0.92620000  0.92620000  1
  H  H47  1  0.50000000  0.07380000  0.07380000  1
  H  H48  1  0.00000000  0.61274000  0.93427000  1
  H  H49  1  1.00000000  0.06573000  0.61274000  1
  H  H50  1  0.00000000  0.06573000  0.38727000  1
  H  H51  1  0.00000000  0.93427000  0.61274000  1
  H  H52  1  0.00000000  0.38727000  0.93427000  1
  H  H53  1  1.00000000  0.61274000  0.06573000  1
  H  H54  1  0.50000000  0.11274000  0.56573000  1
  H  H55  1  0.50000000  0.43427000  0.11274000  1
  H  H56  1  0.50000000  0.43427000  0.88726000  1
  H  H57  1  0.50000000  0.56573000  0.11274000  1
  H  H58  1  0.50000000  0.11274000  0.43427000  1
  H  H59  1  0.50000000  0.88726000  0.56573000  1
  H  H60  1  0.20524600  0.14141900  0.39085500  1
  H  H61  1  0.13121600  0.20064700  0.38500800  1
  H  H62  1  0.79475400  0.14141900  0.39085500  1
  H  H63  1  0.86878400  0.20064700  0.38500800  1
  H  H64  1  0.79475400  0.60914500  0.85858100  1
  H  H65  1  0.86878400  0.61499200  0.79935300  1
  H  H66  1  0.20524600  0.60914500  0.85858100  1
  H  H67  1  0.13121600  0.61499200  0.79935300  1
  H  H68  1  0.20524600  0.60914500  0.14141900  1
  H  H69  1  0.13121600  0.61499200  0.20064700  1
  H  H70  1  0.50000000  0.54830200  0.82358900  1
  H  H71  1  0.50000000  0.62810000  0.86963400  1
  H  H72  1  0.70524600  0.35858100  0.89085500  1
  H  H73  1  0.63121600  0.29935300  0.88500800  1
  H  H74  1  0.50000000  0.82358900  0.45169800  1
  H  H75  1  0.50000000  0.86963400  0.37190000  1
  H  H76  1  0.70524600  0.64141900  0.10914500  1
  H  H77  1  0.63121600  0.70064700  0.11499200  1
  H  H78  1  1.00000000  0.95169760  0.32358900  1
  H  H79  1  0.00000000  0.87190000  0.36963400  1
  H  H80  1  0.20524600  0.14141900  0.60914500  1
  H  H81  1  0.13121600  0.20064700  0.61499200  1
  H  H82  1  0.00000000  0.32358900  0.04830000  1
  H  H83  1  0.00000000  0.36963400  0.12810000  1
  C  C84  1  0.50000000  0.34855000  0.00000000  1
  C  C85  1  0.50000000  0.65145000  0.00000000  1
  C  C86  1  0.50000000  0.00000000  0.65145000  1
  C  C87  1  0.50000000  0.00000000  0.34855000  1
  C  C88  1  0.00000000  0.50000000  0.84855000  1
  C  C89  1  1.00000000  0.50000000  0.15145000  1
  C  C90  1  0.00000000  0.15145000  0.50000000  1
  C  C91  1  0.00000000  0.84855000  0.50000000  1
  C  C92  1  1.00000000  0.92671000  0.50000000  1
  C  C93  1  0.00000000  0.07329000  0.50000000  1
  C  C94  1  0.00000000  0.50000000  0.07329000  1
  C  C95  1  0.00000000  0.50000000  0.92671000  1
  C  C96  1  0.50000000  0.00000000  0.42671000  1
  C  C97  1  0.50000000  0.00000000  0.57329000  1
  C  C98  1  0.50000000  0.57329000  0.00000000  1
  C  C99  1  0.50000000  0.42671000  0.00000000  1
  C  C100  1  1.00000000  0.96354000  0.56372000  1
  C  C101  1  0.00000000  0.03646000  0.43628000  1
  C  C102  1  0.00000000  0.56372000  0.03646000  1
  C  C103  1  0.00000000  0.43628000  0.96354000  1
  C  C104  1  0.00000000  0.56372000  0.96354000  1
  C  C105  1  0.00000000  0.43628000  0.03646000  1
  C  C106  1  0.00000000  0.96354000  0.43628000  1
  C  C107  1  0.00000000  0.03646000  0.56372000  1
  C  C108  1  0.50000000  0.53646000  0.06372000  1
  C  C109  1  0.50000000  0.46354000  0.93628000  1
  C  C110  1  0.50000000  0.93628000  0.53646000  1
  C  C111  1  0.50000000  0.06372000  0.46354000  1
  C  C112  1  0.50000000  0.93628000  0.46354000  1
  C  C113  1  0.50000000  0.06372000  0.53646000  1
  C  C114  1  0.50000000  0.53646000  0.93628000  1
  C  C115  1  0.50000000  0.46354000  0.06372000  1
  C  C116  1  0.31801000  0.22548000  0.22548000  1
  C  C117  1  0.68199000  0.77452000  0.77452000  1
  C  C118  1  0.68199000  0.22548000  0.22548000  1
  C  C119  1  0.31801000  0.77452000  0.77452000  1
  C  C120  1  0.31801000  0.22548000  0.77452000  1
  C  C121  1  0.68199000  0.77452000  0.22548000  1
  C  C122  1  0.68199000  0.22548000  0.77452000  1
  C  C123  1  0.31801000  0.77452000  0.22548000  1
  C  C124  1  0.81801000  0.27452000  0.72548000  1
  C  C125  1  0.18199000  0.72548000  0.27452000  1
  C  C126  1  0.18199000  0.27452000  0.72548000  1
  C  C127  1  0.81801000  0.72548000  0.27452000  1
  C  C128  1  0.81801000  0.27452000  0.27452000  1
  C  C129  1  0.18199000  0.72548000  0.72548000  1
  C  C130  1  0.18199000  0.27452000  0.27452000  1
  C  C131  1  0.81801000  0.72548000  0.72548000  1
  C  C132  1  0.89007000  0.69859000  0.69859000  1
  C  C133  1  0.10992000  0.30141000  0.30141000  1
  C  C134  1  0.10992000  0.69859000  0.69859000  1
  C  C135  1  0.89007000  0.30141000  0.30141000  1
  C  C136  1  0.89007000  0.69859000  0.30141000  1
  C  C137  1  0.10992000  0.30141000  0.69859000  1
  C  C138  1  0.10992000  0.69859000  0.30141000  1
  C  C139  1  0.89007000  0.30141000  0.69859000  1
  C  C140  1  0.39008000  0.80141000  0.19859000  1
  C  C141  1  0.60993000  0.19859000  0.80141000  1
  C  C142  1  0.60993000  0.80141000  0.19859000  1
  C  C143  1  0.39008000  0.19859000  0.80141000  1
  C  C144  1  0.39008000  0.80141000  0.80141000  1
  C  C145  1  0.60993000  0.19859000  0.19859000  1
  C  C146  1  0.60993000  0.80141000  0.80141000  1
  C  C147  1  0.39008000  0.19859000  0.19859000  1
  C  C148  1  0.28381000  0.19278000  0.28284000  1
  C  C149  1  0.71619000  0.80722000  0.71716000  1
  C  C150  1  0.71619000  0.19278000  0.28284000  1
  C  C151  1  0.28381000  0.80722000  0.71716000  1
  C  C152  1  0.28381000  0.28284000  0.80722000  1
  C  C153  1  0.71619000  0.71716000  0.19278000  1
  C  C154  1  0.71619000  0.28284000  0.80722000  1
  C  C155  1  0.28381000  0.71716000  0.19278000  1
  C  C156  1  0.71619000  0.28284000  0.19278000  1
  C  C157  1  0.28381000  0.71716000  0.80722000  1
  C  C158  1  0.28381000  0.28284000  0.19278000  1
  C  C159  1  0.71619000  0.71716000  0.80722000  1
  C  C160  1  0.71619000  0.19278000  0.71716000  1
  C  C161  1  0.28381000  0.80722000  0.28284000  1
  C  C162  1  0.28381000  0.19278000  0.71716000  1
  C  C163  1  0.71619000  0.80722000  0.28284000  1
  C  C164  1  0.21619000  0.30722000  0.78284000  1
  C  C165  1  0.78381000  0.69278000  0.21716000  1
  C  C166  1  0.78381000  0.30722000  0.78284000  1
  C  C167  1  0.21619000  0.69278000  0.21716000  1
  C  C168  1  0.21619000  0.21716000  0.30722000  1
  C  C169  1  0.78381000  0.78284000  0.69278000  1
  C  C170  1  0.78381000  0.21716000  0.30722000  1
  C  C171  1  0.21619000  0.78284000  0.69278000  1
  C  C172  1  0.78381000  0.21716000  0.69278000  1
  C  C173  1  0.21619000  0.78284000  0.30722000  1
  C  C174  1  0.21619000  0.21716000  0.69278000  1
  C  C175  1  0.78381000  0.78284000  0.30722000  1
  C  C176  1  0.78381000  0.30722000  0.21716000  1
  C  C177  1  0.21619000  0.69278000  0.78284000  1
  C  C178  1  0.21619000  0.30722000  0.21716000  1
  C  C179  1  0.78381000  0.69278000  0.78284000  1
  N  N180  1  0.18055100  0.18288300  0.36719700  1
  N  N181  1  0.81944900  0.18288300  0.36719700  1
  N  N182  1  0.81944900  0.63280300  0.81711700  1
  N  N183  1  0.18055100  0.63280300  0.81711700  1
  N  N184  1  0.18055100  0.63280300  0.18288300  1
  N  N185  1  0.50000000  0.57490900  0.86964700  1
  N  N186  1  0.68055100  0.31711700  0.86719700  1
  N  N187  1  0.50000000  0.86964700  0.42509100  1
  N  N188  1  0.68055100  0.68288300  0.13280300  1
  N  N189  1  1.00000000  0.92509090  0.36964700  1
  N  N190  1  0.18055100  0.18288300  0.63280300  1
  N  N191  1  1.00000000  0.36964700  0.07491000  1
  O  O192  1  0.50000000  0.31690000  0.05912000  1
  O  O193  1  0.50000000  0.05912000  0.68310000  1
  O  O194  1  0.50000000  0.05912000  0.31690000  1
  O  O195  1  0.50000000  0.68310000  0.05912000  1
  O  O196  1  0.00000000  0.18310000  0.55912000  1
  O  O197  1  0.00000000  0.55912000  0.81690000  1
  O  O198  1  0.00000000  0.44088000  0.81690000  1
  O  O199  1  0.00000000  0.18310000  0.44088000  1
  O  O200  1  0.06766000  0.30085000  0.50000000  1
  O  O201  1  0.06766000  0.69915000  0.50000000  1
  O  O202  1  0.06766000  0.50000000  0.69915000  1
  O  O203  1  0.06766000  0.50000000  0.30085000  1
  O  O204  1  0.41889000  0.22945000  0.14601000  1
  O  O205  1  0.58111000  0.77055000  0.85399000  1
  O  O206  1  0.58111000  0.22945000  0.14601000  1
  O  O207  1  0.41889000  0.77055000  0.85399000  1
  O  O208  1  0.41889000  0.14601000  0.77055000  1
  O  O209  1  0.58111000  0.85399000  0.22945000  1
  O  O210  1  0.58111000  0.14601000  0.77055000  1
  O  O211  1  0.41889000  0.85399000  0.22945000  1
  O  O212  1  0.58111000  0.14601000  0.22945000  1
  O  O213  1  0.41889000  0.85399000  0.77055000  1
  O  O214  1  0.41889000  0.14601000  0.22945000  1
  O  O215  1  0.58111000  0.85399000  0.77055000  1
  O  O216  1  0.58111000  0.22945000  0.85399000  1
  O  O217  1  0.41889000  0.77055000  0.14601000  1
  O  O218  1  0.41889000  0.22945000  0.85399000  1
  O  O219  1  0.58111000  0.77055000  0.14601000  1
  O  O220  1  0.08111000  0.27055000  0.64601000  1
  O  O221  1  0.08111000  0.72945000  0.35399000  1
  O  O222  1  0.08111000  0.35399000  0.27055000  1
  O  O223  1  0.08111000  0.64601000  0.72945000  1
  O  O224  1  0.08111000  0.64601000  0.27055000  1
  O  O225  1  0.08111000  0.35399000  0.72945000  1
  O  O226  1  0.08111000  0.72945000  0.64601000  1
  O  O227  1  0.08111000  0.27055000  0.35399000  1
  O  O228  1  0.50000000  0.10974000  0.10974000  1
  O  O229  1  0.50000000  0.89026000  0.89026000  1
  O  O230  1  0.50000000  0.10974000  0.89026000  1
  O  O231  1  0.50000000  0.89026000  0.10974000  1
  O  O232  1  0.00000000  0.39026000  0.60974000  1
  O  O233  1  0.00000000  0.60974000  0.39026000  1
  O  O234  1  1.00000000  0.39026000  0.39026000  1
  O  O235  1  1.00000000  0.60974000  0.60974000  1
  O  O236  1  0.93234000  0.69915000  0.50000000  1
  O  O237  1  0.93234000  0.30085000  0.50000000  1
  O  O238  1  0.93234000  0.50000000  0.30085000  1
  O  O239  1  0.93234000  0.50000000  0.69915000  1
  O  O240  1  0.50000000  0.68310000  0.94088000  1.0
  O  O241  1  0.50000000  0.94088000  0.31690000  1.0
  O  O242  1  0.50000000  0.94088000  0.68310000  1.0
  O  O243  1  0.50000000  0.31690000  0.94088000  1.0
  O  O244  1  1.00000000  0.81690000  0.44088000  1.0
  O  O245  1  0.00000000  0.44088000  0.18310000  1.0
  O  O246  1  0.00000000  0.55912000  0.18310000  1.0
  O  O247  1  0.00000000  0.81690000  0.55912000  1.0
  O  O248  1  0.43234000  0.00000000  0.19915000  1.0
  O  O249  1  0.56766000  0.00000000  0.80085000  1.0
  O  O250  1  0.56766000  0.00000000  0.19915000  1.0
  O  O251  1  0.43234000  0.00000000  0.80085000  1.0
  O  O252  1  0.43234000  0.80085000  0.00000000  1.0
  O  O253  1  0.56766000  0.19915000  0.00000000  1.0
  O  O254  1  0.56766000  0.80085000  0.00000000  1.0
  O  O255  1  0.43234000  0.19915000  0.00000000  1.0
  O  O256  1  0.91889000  0.72945000  0.35399000  1.0
  O  O257  1  0.91889000  0.27055000  0.64601000  1.0
  O  O258  1  0.91889000  0.64601000  0.72945000  1.0
  O  O259  1  0.91889000  0.35399000  0.27055000  1.0
  O  O260  1  0.91889000  0.35399000  0.72945000  1.0
  O  O261  1  0.91889000  0.64601000  0.27055000  1.0
  O  O262  1  0.91889000  0.27055000  0.35399000  1.0
  O  O263  1  0.91889000  0.72945000  0.64601000  1.0
