# generated using pymatgen
data_Zn4H26C48O13
_symmetry_space_group_name_H-M   'P 1'
_cell_length_a   30.35300000
_cell_length_b   30.35300000
_cell_length_c   30.35300000
_cell_angle_alpha   90.00000000
_cell_angle_beta   90.00000000
_cell_angle_gamma   90.00000000
_symmetry_Int_Tables_number   1
_chemical_formula_structural   Zn4H26C48O13
_chemical_formula_sum   'Zn24 H156 C288 O78'
_cell_volume   27964.35879698
_cell_formula_units_Z   6
loop_
 _symmetry_equiv_pos_site_id
 _symmetry_equiv_pos_as_xyz
  1  'x, y, z'
loop_
 _atom_site_type_symbol
 _atom_site_label
 _atom_site_symmetry_multiplicity
 _atom_site_fract_x
 _atom_site_fract_y
 _atom_site_fract_z
 _atom_site_occupancy
  Zn  Zn0  1  0.50000000  0.05193500  0.21258200  1
  Zn  Zn1  1  0.21258200  0.50000000  0.05193500  1
  Zn  Zn2  1  0.05193500  0.21258200  0.50000000  1
  Zn  Zn3  1  0.50000000  0.94806500  0.21258200  1.0
  Zn  Zn4  1  0.50000000  0.05193500  0.78741800  1.0
  Zn  Zn5  1  0.21258200  0.50000000  0.94806500  1.0
  Zn  Zn6  1  0.78741800  0.50000000  0.05193500  1.0
  Zn  Zn7  1  0.94806500  0.21258200  0.50000000  1.0
  Zn  Zn8  1  0.05193500  0.78741800  0.50000000  1.0
  Zn  Zn9  1  0.44806500  0.00000000  0.28741800  1.0
  Zn  Zn10  1  0.55193500  0.00000000  0.28741800  1.0
  Zn  Zn11  1  0.44806500  0.00000000  0.71258200  1.0
  Zn  Zn12  1  0.55193500  0.00000000  0.71258200  1.0
  Zn  Zn13  1  0.00000000  0.71258200  0.55193500  1.0
  Zn  Zn14  1  0.00000000  0.71258200  0.44806500  1.0
  Zn  Zn15  1  0.00000000  0.28741800  0.55193500  1.0
  Zn  Zn16  1  0.00000000  0.28741800  0.44806500  1.0
  Zn  Zn17  1  0.71258200  0.44806500  0.00000000  1.0
  Zn  Zn18  1  0.71258200  0.55193500  0.00000000  1.0
  Zn  Zn19  1  0.28741800  0.44806500  0.00000000  1.0
  Zn  Zn20  1  0.28741800  0.55193500  0.00000000  1.0
  Zn  Zn21  1  0.50000000  0.94806500  0.78741800  1.0
  Zn  Zn22  1  0.78741800  0.50000000  0.94806500  1.0
  Zn  Zn23  1  0.94806500  0.78741800  0.50000000  1.0
  H  H24  1  0.50000000  0.94620000  0.06300000  1
  H  H25  1  0.50000000  0.05380000  0.93700000  1
  H  H26  1  0.06300000  0.50000000  0.05380000  1
  H  H27  1  0.93700000  0.50000000  0.94620000  1
  H  H28  1  0.05380000  0.06300000  0.50000000  1
  H  H29  1  0.94620000  0.93700000  0.50000000  1
  H  H30  1  0.44620000  0.00000000  0.43700000  1
  H  H31  1  0.55380000  0.00000000  0.56300000  1
  H  H32  1  0.00000000  0.56300000  0.55380000  1
  H  H33  1  0.00000000  0.43700000  0.44620000  1
  H  H34  1  0.56300000  0.55380000  0.00000000  1
  H  H35  1  0.43700000  0.44620000  0.00000000  1
  H  H36  1  0.50000000  0.07380000  0.08280000  1
  H  H37  1  0.50000000  0.92620000  0.91720000  1
  H  H38  1  0.08280000  0.50000000  0.92620000  1
  H  H39  1  0.91720000  0.50000000  0.07380000  1
  H  H40  1  0.92620000  0.08280000  0.50000000  1
  H  H41  1  0.07380000  0.91720000  0.50000000  1
  H  H42  1  0.57380000  0.00000000  0.41720000  1
  H  H43  1  0.42620000  0.00000000  0.58280000  1
  H  H44  1  0.00000000  0.58280000  0.42620000  1
  H  H45  1  0.00000000  0.41720000  0.57380000  1
  H  H46  1  0.58280000  0.42620000  0.00000000  1
  H  H47  1  0.41720000  0.57380000  0.00000000  1
  H  H48  1  0.50000000  0.08650000  0.00610000  1
  H  H49  1  0.50000000  0.91350000  0.99390000  1
  H  H50  1  0.00610000  0.50000000  0.91350000  1
  H  H51  1  0.99390000  0.50000000  0.08650000  1
  H  H52  1  0.91350000  0.00610000  0.50000000  1
  H  H53  1  0.08650000  0.99390000  0.50000000  1
  H  H54  1  0.58650000  0.00000000  0.49390000  1
  H  H55  1  0.41350000  0.00000000  0.50610000  1
  H  H56  1  0.00000000  0.50610000  0.41350000  1
  H  H57  1  0.00000000  0.49390000  0.58650000  1
  H  H58  1  0.50610000  0.41350000  0.00000000  1
  H  H59  1  0.49390000  0.58650000  0.00000000  1
  H  H60  1  0.75000000  0.80380000  0.30380000  1
  H  H61  1  0.25000000  0.19620000  0.30380000  1
  H  H62  1  0.25000000  0.80380000  0.69620000  1
  H  H63  1  0.75000000  0.19620000  0.69620000  1
  H  H64  1  0.30380000  0.75000000  0.80380000  1
  H  H65  1  0.30380000  0.25000000  0.19620000  1
  H  H66  1  0.69620000  0.25000000  0.80380000  1
  H  H67  1  0.69620000  0.75000000  0.19620000  1
  H  H68  1  0.80380000  0.30380000  0.75000000  1
  H  H69  1  0.19620000  0.30380000  0.25000000  1
  H  H70  1  0.80380000  0.69620000  0.25000000  1
  H  H71  1  0.19620000  0.69620000  0.75000000  1
  H  H72  1  0.25000000  0.19620000  0.69620000  1
  H  H73  1  0.75000000  0.80380000  0.69620000  1
  H  H74  1  0.75000000  0.19620000  0.30380000  1
  H  H75  1  0.25000000  0.80380000  0.30380000  1
  H  H76  1  0.69620000  0.25000000  0.19620000  1
  H  H77  1  0.69620000  0.75000000  0.80380000  1
  H  H78  1  0.30380000  0.75000000  0.19620000  1
  H  H79  1  0.30380000  0.25000000  0.80380000  1
  H  H80  1  0.19620000  0.69620000  0.25000000  1
  H  H81  1  0.80380000  0.69620000  0.75000000  1
  H  H82  1  0.19620000  0.30380000  0.75000000  1
  H  H83  1  0.80380000  0.30380000  0.25000000  1
  H  H84  1  0.58310000  0.83490000  0.22060000  1
  H  H85  1  0.41690000  0.16510000  0.22060000  1
  H  H86  1  0.41690000  0.83490000  0.77940000  1
  H  H87  1  0.58310000  0.16510000  0.77940000  1
  H  H88  1  0.22060000  0.58310000  0.83490000  1
  H  H89  1  0.22060000  0.41690000  0.16510000  1
  H  H90  1  0.77940000  0.41690000  0.83490000  1
  H  H91  1  0.77940000  0.58310000  0.16510000  1
  H  H92  1  0.83490000  0.22060000  0.58310000  1
  H  H93  1  0.16510000  0.22060000  0.41690000  1
  H  H94  1  0.83490000  0.77940000  0.41690000  1
  H  H95  1  0.16510000  0.77940000  0.58310000  1
  H  H96  1  0.33490000  0.08310000  0.27940000  1
  H  H97  1  0.66510000  0.91690000  0.27940000  1
  H  H98  1  0.33490000  0.91690000  0.72060000  1
  H  H99  1  0.66510000  0.08310000  0.72060000  1
  H  H100  1  0.08310000  0.72060000  0.66510000  1
  H  H101  1  0.91690000  0.72060000  0.33490000  1
  H  H102  1  0.91690000  0.27940000  0.66510000  1
  H  H103  1  0.08310000  0.27940000  0.33490000  1
  H  H104  1  0.72060000  0.33490000  0.91690000  1
  H  H105  1  0.72060000  0.66510000  0.08310000  1
  H  H106  1  0.27940000  0.33490000  0.08310000  1
  H  H107  1  0.27940000  0.66510000  0.91690000  1
  H  H108  1  0.41690000  0.16510000  0.77940000  1
  H  H109  1  0.58310000  0.83490000  0.77940000  1
  H  H110  1  0.58310000  0.16510000  0.22060000  1
  H  H111  1  0.41690000  0.83490000  0.22060000  1
  H  H112  1  0.77940000  0.41690000  0.16510000  1
  H  H113  1  0.77940000  0.58310000  0.83490000  1
  H  H114  1  0.22060000  0.58310000  0.16510000  1
  H  H115  1  0.22060000  0.41690000  0.83490000  1
  H  H116  1  0.16510000  0.77940000  0.41690000  1
  H  H117  1  0.83490000  0.77940000  0.58310000  1
  H  H118  1  0.16510000  0.22060000  0.58310000  1
  H  H119  1  0.83490000  0.22060000  0.41690000  1
  H  H120  1  0.66510000  0.91690000  0.72060000  1
  H  H121  1  0.33490000  0.08310000  0.72060000  1
  H  H122  1  0.66510000  0.08310000  0.27940000  1
  H  H123  1  0.33490000  0.91690000  0.27940000  1
  H  H124  1  0.91690000  0.27940000  0.33490000  1
  H  H125  1  0.08310000  0.27940000  0.66510000  1
  H  H126  1  0.08310000  0.72060000  0.33490000  1
  H  H127  1  0.91690000  0.72060000  0.66510000  1
  H  H128  1  0.27940000  0.66510000  0.08310000  1
  H  H129  1  0.27940000  0.33490000  0.91690000  1
  H  H130  1  0.72060000  0.66510000  0.91690000  1
  H  H131  1  0.72060000  0.33490000  0.08310000  1
  H  H132  1  0.63500000  0.78070000  0.22200000  1
  H  H133  1  0.36500000  0.21930000  0.22200000  1
  H  H134  1  0.36500000  0.78070000  0.77800000  1
  H  H135  1  0.63500000  0.21930000  0.77800000  1
  H  H136  1  0.22200000  0.63500000  0.78070000  1
  H  H137  1  0.22200000  0.36500000  0.21930000  1
  H  H138  1  0.77800000  0.36500000  0.78070000  1
  H  H139  1  0.77800000  0.63500000  0.21930000  1
  H  H140  1  0.78070000  0.22200000  0.63500000  1
  H  H141  1  0.21930000  0.22200000  0.36500000  1
  H  H142  1  0.78070000  0.77800000  0.36500000  1
  H  H143  1  0.21930000  0.77800000  0.63500000  1
  H  H144  1  0.28070000  0.13500000  0.27800000  1
  H  H145  1  0.71930000  0.86500000  0.27800000  1
  H  H146  1  0.28070000  0.86500000  0.72200000  1
  H  H147  1  0.71930000  0.13500000  0.72200000  1
  H  H148  1  0.13500000  0.72200000  0.71930000  1
  H  H149  1  0.86500000  0.72200000  0.28070000  1
  H  H150  1  0.86500000  0.27800000  0.71930000  1
  H  H151  1  0.13500000  0.27800000  0.28070000  1
  H  H152  1  0.72200000  0.28070000  0.86500000  1
  H  H153  1  0.72200000  0.71930000  0.13500000  1
  H  H154  1  0.27800000  0.28070000  0.13500000  1
  H  H155  1  0.27800000  0.71930000  0.86500000  1
  H  H156  1  0.36500000  0.21930000  0.77800000  1
  H  H157  1  0.63500000  0.78070000  0.77800000  1
  H  H158  1  0.63500000  0.21930000  0.22200000  1
  H  H159  1  0.36500000  0.78070000  0.22200000  1
  H  H160  1  0.77800000  0.36500000  0.21930000  1
  H  H161  1  0.77800000  0.63500000  0.78070000  1
  H  H162  1  0.22200000  0.63500000  0.21930000  1
  H  H163  1  0.22200000  0.36500000  0.78070000  1
  H  H164  1  0.21930000  0.77800000  0.36500000  1
  H  H165  1  0.78070000  0.77800000  0.63500000  1
  H  H166  1  0.21930000  0.22200000  0.63500000  1
  H  H167  1  0.78070000  0.22200000  0.36500000  1
  H  H168  1  0.71930000  0.86500000  0.72200000  1
  H  H169  1  0.28070000  0.13500000  0.72200000  1
  H  H170  1  0.71930000  0.13500000  0.27800000  1
  H  H171  1  0.28070000  0.86500000  0.27800000  1
  H  H172  1  0.86500000  0.27800000  0.28070000  1
  H  H173  1  0.13500000  0.27800000  0.71930000  1
  H  H174  1  0.13500000  0.72200000  0.28070000  1
  H  H175  1  0.86500000  0.72200000  0.71930000  1
  H  H176  1  0.27800000  0.71930000  0.13500000  1
  H  H177  1  0.27800000  0.28070000  0.86500000  1
  H  H178  1  0.72200000  0.71930000  0.86500000  1
  H  H179  1  0.72200000  0.28070000  0.13500000  1
  C  C180  1  0.50000000  0.00000000  0.13094000  1
  C  C181  1  0.50000000  0.00000000  0.86906000  1
  C  C182  1  0.13094000  0.50000000  0.00000000  1
  C  C183  1  0.86906000  0.50000000  0.00000000  1
  C  C184  1  0.00000000  0.13094000  0.50000000  1
  C  C185  1  0.00000000  0.86906000  0.50000000  1
  C  C186  1  0.50000000  0.00000000  0.36906000  1
  C  C187  1  0.50000000  0.00000000  0.63094000  1
  C  C188  1  0.00000000  0.63094000  0.50000000  1
  C  C189  1  0.00000000  0.36906000  0.50000000  1
  C  C190  1  0.63094000  0.50000000  0.00000000  1
  C  C191  1  0.36906000  0.50000000  0.00000000  1
  C  C192  1  0.50000000  0.00000000  0.08235000  1
  C  C193  1  0.50000000  0.00000000  0.91765000  1
  C  C194  1  0.08235000  0.50000000  0.00000000  1
  C  C195  1  0.91765000  0.50000000  0.00000000  1
  C  C196  1  0.00000000  0.08235000  0.50000000  1
  C  C197  1  0.00000000  0.91765000  0.50000000  1
  C  C198  1  0.50000000  0.00000000  0.41765000  1
  C  C199  1  0.50000000  0.00000000  0.58235000  1
  C  C200  1  0.00000000  0.58235000  0.50000000  1
  C  C201  1  0.00000000  0.41765000  0.50000000  1
  C  C202  1  0.58235000  0.50000000  0.00000000  1
  C  C203  1  0.41765000  0.50000000  0.00000000  1
  C  C204  1  0.50000000  0.97887000  0.00860000  1
  C  C205  1  0.50000000  0.02113000  0.99140000  1
  C  C206  1  0.00860000  0.50000000  0.02113000  1
  C  C207  1  0.99140000  0.50000000  0.97887000  1
  C  C208  1  0.02113000  0.00860000  0.50000000  1
  C  C209  1  0.97887000  0.99140000  0.50000000  1
  C  C210  1  0.47887000  0.00000000  0.49140000  1
  C  C211  1  0.52113000  0.00000000  0.50860000  1
  C  C212  1  0.00000000  0.50860000  0.52113000  1
  C  C213  1  0.00000000  0.49140000  0.47887000  1
  C  C214  1  0.50860000  0.52113000  0.00000000  1
  C  C215  1  0.49140000  0.47887000  0.00000000  1
  C  C216  1  0.50000000  0.97530000  0.05350000  1
  C  C217  1  0.50000000  0.02470000  0.94650000  1
  C  C218  1  0.05350000  0.50000000  0.02470000  1
  C  C219  1  0.94650000  0.50000000  0.97530000  1
  C  C220  1  0.02470000  0.05350000  0.50000000  1
  C  C221  1  0.97530000  0.94650000  0.50000000  1
  C  C222  1  0.47530000  0.00000000  0.44650000  1
  C  C223  1  0.52470000  0.00000000  0.55350000  1
  C  C224  1  0.00000000  0.55350000  0.52470000  1
  C  C225  1  0.00000000  0.44650000  0.47530000  1
  C  C226  1  0.55350000  0.52470000  0.00000000  1
  C  C227  1  0.44650000  0.47530000  0.00000000  1
  C  C228  1  0.50000000  0.05020000  0.06330000  1
  C  C229  1  0.50000000  0.94980000  0.93670000  1
  C  C230  1  0.06330000  0.50000000  0.94980000  1
  C  C231  1  0.93670000  0.50000000  0.05020000  1
  C  C232  1  0.94980000  0.06330000  0.50000000  1
  C  C233  1  0.05020000  0.93670000  0.50000000  1
  C  C234  1  0.55020000  0.00000000  0.43670000  1
  C  C235  1  0.44980000  0.00000000  0.56330000  1
  C  C236  1  0.00000000  0.56330000  0.44980000  1
  C  C237  1  0.00000000  0.43670000  0.55020000  1
  C  C238  1  0.56330000  0.44980000  0.00000000  1
  C  C239  1  0.43670000  0.55020000  0.00000000  1
  C  C240  1  0.50000000  0.05820000  0.01774000  1
  C  C241  1  0.50000000  0.94180000  0.98226000  1
  C  C242  1  0.01774000  0.50000000  0.94180000  1
  C  C243  1  0.98226000  0.50000000  0.05820000  1
  C  C244  1  0.94180000  0.01774000  0.50000000  1
  C  C245  1  0.05820000  0.98226000  0.50000000  1
  C  C246  1  0.55820000  0.00000000  0.48226000  1
  C  C247  1  0.44180000  0.00000000  0.51774000  1
  C  C248  1  0.00000000  0.51774000  0.44180000  1
  C  C249  1  0.00000000  0.48226000  0.55820000  1
  C  C250  1  0.51774000  0.44180000  0.00000000  1
  C  C251  1  0.48226000  0.55820000  0.00000000  1
  C  C252  1  0.58289000  0.91711000  0.25000000  1
  C  C253  1  0.41711000  0.08289000  0.25000000  1
  C  C254  1  0.41711000  0.91711000  0.75000000  1
  C  C255  1  0.58289000  0.08289000  0.75000000  1
  C  C256  1  0.25000000  0.58289000  0.91711000  1
  C  C257  1  0.25000000  0.41711000  0.08289000  1
  C  C258  1  0.75000000  0.41711000  0.91711000  1
  C  C259  1  0.75000000  0.58289000  0.08289000  1
  C  C260  1  0.91711000  0.25000000  0.58289000  1
  C  C261  1  0.08289000  0.25000000  0.41711000  1
  C  C262  1  0.91711000  0.75000000  0.41711000  1
  C  C263  1  0.08289000  0.75000000  0.58289000  1
  C  C264  1  0.41711000  0.08289000  0.75000000  1
  C  C265  1  0.58289000  0.91711000  0.75000000  1
  C  C266  1  0.58289000  0.08289000  0.25000000  1
  C  C267  1  0.41711000  0.91711000  0.25000000  1
  C  C268  1  0.75000000  0.41711000  0.08289000  1
  C  C269  1  0.75000000  0.58289000  0.91711000  1
  C  C270  1  0.25000000  0.58289000  0.08289000  1
  C  C271  1  0.25000000  0.41711000  0.91711000  1
  C  C272  1  0.08289000  0.75000000  0.41711000  1
  C  C273  1  0.91711000  0.75000000  0.58289000  1
  C  C274  1  0.08289000  0.25000000  0.58289000  1
  C  C275  1  0.91711000  0.25000000  0.41711000  1
  C  C276  1  0.61769000  0.88231000  0.25000000  1
  C  C277  1  0.38231000  0.11769000  0.25000000  1
  C  C278  1  0.38231000  0.88231000  0.75000000  1
  C  C279  1  0.61769000  0.11769000  0.75000000  1
  C  C280  1  0.25000000  0.61769000  0.88231000  1
  C  C281  1  0.25000000  0.38231000  0.11769000  1
  C  C282  1  0.75000000  0.38231000  0.88231000  1
  C  C283  1  0.75000000  0.61769000  0.11769000  1
  C  C284  1  0.88231000  0.25000000  0.61769000  1
  C  C285  1  0.11769000  0.25000000  0.38231000  1
  C  C286  1  0.88231000  0.75000000  0.38231000  1
  C  C287  1  0.11769000  0.75000000  0.61769000  1
  C  C288  1  0.38231000  0.11769000  0.75000000  1
  C  C289  1  0.61769000  0.88231000  0.75000000  1
  C  C290  1  0.61769000  0.11769000  0.25000000  1
  C  C291  1  0.38231000  0.88231000  0.25000000  1
  C  C292  1  0.75000000  0.38231000  0.11769000  1
  C  C293  1  0.75000000  0.61769000  0.88231000  1
  C  C294  1  0.25000000  0.61769000  0.11769000  1
  C  C295  1  0.25000000  0.38231000  0.88231000  1
  C  C296  1  0.11769000  0.75000000  0.38231000  1
  C  C297  1  0.88231000  0.75000000  0.61769000  1
  C  C298  1  0.11769000  0.25000000  0.61769000  1
  C  C299  1  0.88231000  0.25000000  0.38231000  1
  C  C300  1  0.68284000  0.81716000  0.25000000  1
  C  C301  1  0.31716000  0.18284000  0.25000000  1
  C  C302  1  0.31716000  0.81716000  0.75000000  1
  C  C303  1  0.68284000  0.18284000  0.75000000  1
  C  C304  1  0.25000000  0.68284000  0.81716000  1
  C  C305  1  0.25000000  0.31716000  0.18284000  1
  C  C306  1  0.75000000  0.31716000  0.81716000  1
  C  C307  1  0.75000000  0.68284000  0.18284000  1
  C  C308  1  0.81716000  0.25000000  0.68284000  1
  C  C309  1  0.18284000  0.25000000  0.31716000  1
  C  C310  1  0.81716000  0.75000000  0.31716000  1
  C  C311  1  0.18284000  0.75000000  0.68284000  1
  C  C312  1  0.31716000  0.18284000  0.75000000  1
  C  C313  1  0.68284000  0.81716000  0.75000000  1
  C  C314  1  0.68284000  0.18284000  0.25000000  1
  C  C315  1  0.31716000  0.81716000  0.25000000  1
  C  C316  1  0.75000000  0.31716000  0.18284000  1
  C  C317  1  0.75000000  0.68284000  0.81716000  1
  C  C318  1  0.25000000  0.68284000  0.18284000  1
  C  C319  1  0.25000000  0.31716000  0.81716000  1
  C  C320  1  0.18284000  0.75000000  0.31716000  1
  C  C321  1  0.81716000  0.75000000  0.68284000  1
  C  C322  1  0.18284000  0.25000000  0.68284000  1
  C  C323  1  0.81716000  0.25000000  0.31716000  1
  C  C324  1  0.71702000  0.78298000  0.25000000  1
  C  C325  1  0.28298000  0.21702000  0.25000000  1
  C  C326  1  0.28298000  0.78298000  0.75000000  1
  C  C327  1  0.71702000  0.21702000  0.75000000  1
  C  C328  1  0.25000000  0.71702000  0.78298000  1
  C  C329  1  0.25000000  0.28298000  0.21702000  1
  C  C330  1  0.75000000  0.28298000  0.78298000  1
  C  C331  1  0.75000000  0.71702000  0.21702000  1
  C  C332  1  0.78298000  0.25000000  0.71702000  1
  C  C333  1  0.21702000  0.25000000  0.28298000  1
  C  C334  1  0.78298000  0.75000000  0.28298000  1
  C  C335  1  0.21702000  0.75000000  0.71702000  1
  C  C336  1  0.28298000  0.21702000  0.75000000  1
  C  C337  1  0.71702000  0.78298000  0.75000000  1
  C  C338  1  0.71702000  0.21702000  0.25000000  1
  C  C339  1  0.28298000  0.78298000  0.25000000  1
  C  C340  1  0.75000000  0.28298000  0.21702000  1
  C  C341  1  0.75000000  0.71702000  0.78298000  1
  C  C342  1  0.25000000  0.71702000  0.21702000  1
  C  C343  1  0.25000000  0.28298000  0.78298000  1
  C  C344  1  0.21702000  0.75000000  0.28298000  1
  C  C345  1  0.78298000  0.75000000  0.71702000  1
  C  C346  1  0.21702000  0.25000000  0.71702000  1
  C  C347  1  0.78298000  0.25000000  0.28298000  1
  C  C348  1  0.75000000  0.78211000  0.28211000  1
  C  C349  1  0.25000000  0.21789000  0.28211000  1
  C  C350  1  0.25000000  0.78211000  0.71789000  1
  C  C351  1  0.75000000  0.21789000  0.71789000  1
  C  C352  1  0.28211000  0.75000000  0.78211000  1
  C  C353  1  0.28211000  0.25000000  0.21789000  1
  C  C354  1  0.71789000  0.25000000  0.78211000  1
  C  C355  1  0.71789000  0.75000000  0.21789000  1
  C  C356  1  0.78211000  0.28211000  0.75000000  1
  C  C357  1  0.21789000  0.28211000  0.25000000  1
  C  C358  1  0.78211000  0.71789000  0.25000000  1
  C  C359  1  0.21789000  0.71789000  0.75000000  1
  C  C360  1  0.25000000  0.21789000  0.71789000  1
  C  C361  1  0.75000000  0.78211000  0.71789000  1
  C  C362  1  0.75000000  0.21789000  0.28211000  1
  C  C363  1  0.25000000  0.78211000  0.28211000  1
  C  C364  1  0.71789000  0.25000000  0.21789000  1
  C  C365  1  0.71789000  0.75000000  0.78211000  1
  C  C366  1  0.28211000  0.75000000  0.21789000  1
  C  C367  1  0.28211000  0.25000000  0.78211000  1
  C  C368  1  0.21789000  0.71789000  0.25000000  1
  C  C369  1  0.78211000  0.71789000  0.75000000  1
  C  C370  1  0.21789000  0.28211000  0.75000000  1
  C  C371  1  0.78211000  0.28211000  0.25000000  1
  C  C372  1  0.61051000  0.84098000  0.23293000  1
  C  C373  1  0.38949000  0.15902000  0.23293000  1
  C  C374  1  0.38949000  0.84098000  0.76707000  1
  C  C375  1  0.61051000  0.15902000  0.76707000  1
  C  C376  1  0.23293000  0.61051000  0.84098000  1
  C  C377  1  0.23293000  0.38949000  0.15902000  1
  C  C378  1  0.76707000  0.38949000  0.84098000  1
  C  C379  1  0.76707000  0.61051000  0.15902000  1
  C  C380  1  0.84098000  0.23293000  0.61051000  1
  C  C381  1  0.15902000  0.23293000  0.38949000  1
  C  C382  1  0.84098000  0.76707000  0.38949000  1
  C  C383  1  0.15902000  0.76707000  0.61051000  1
  C  C384  1  0.34098000  0.11051000  0.26707000  1
  C  C385  1  0.65902000  0.88949000  0.26707000  1
  C  C386  1  0.34098000  0.88949000  0.73293000  1
  C  C387  1  0.65902000  0.11051000  0.73293000  1
  C  C388  1  0.11051000  0.73293000  0.65902000  1
  C  C389  1  0.88949000  0.73293000  0.34098000  1
  C  C390  1  0.88949000  0.26707000  0.65902000  1
  C  C391  1  0.11051000  0.26707000  0.34098000  1
  C  C392  1  0.73293000  0.34098000  0.88949000  1
  C  C393  1  0.73293000  0.65902000  0.11051000  1
  C  C394  1  0.26707000  0.34098000  0.11051000  1
  C  C395  1  0.26707000  0.65902000  0.88949000  1
  C  C396  1  0.38949000  0.15902000  0.76707000  1
  C  C397  1  0.61051000  0.84098000  0.76707000  1
  C  C398  1  0.61051000  0.15902000  0.23293000  1
  C  C399  1  0.38949000  0.84098000  0.23293000  1
  C  C400  1  0.76707000  0.38949000  0.15902000  1
  C  C401  1  0.76707000  0.61051000  0.84098000  1
  C  C402  1  0.23293000  0.61051000  0.15902000  1
  C  C403  1  0.23293000  0.38949000  0.84098000  1
  C  C404  1  0.15902000  0.76707000  0.38949000  1
  C  C405  1  0.84098000  0.76707000  0.61051000  1
  C  C406  1  0.15902000  0.23293000  0.61051000  1
  C  C407  1  0.84098000  0.23293000  0.38949000  1
  C  C408  1  0.65902000  0.88949000  0.73293000  1
  C  C409  1  0.34098000  0.11051000  0.73293000  1
  C  C410  1  0.65902000  0.11051000  0.26707000  1
  C  C411  1  0.34098000  0.88949000  0.26707000  1
  C  C412  1  0.88949000  0.26707000  0.34098000  1
  C  C413  1  0.11051000  0.26707000  0.65902000  1
  C  C414  1  0.11051000  0.73293000  0.34098000  1
  C  C415  1  0.88949000  0.73293000  0.65902000  1
  C  C416  1  0.26707000  0.65902000  0.11051000  1
  C  C417  1  0.26707000  0.34098000  0.88949000  1
  C  C418  1  0.73293000  0.65902000  0.88949000  1
  C  C419  1  0.73293000  0.34098000  0.11051000  1
  C  C420  1  0.64162000  0.80846000  0.23315000  1
  C  C421  1  0.35838000  0.19154000  0.23315000  1
  C  C422  1  0.35838000  0.80846000  0.76685000  1
  C  C423  1  0.64162000  0.19154000  0.76685000  1
  C  C424  1  0.23315000  0.64162000  0.80846000  1
  C  C425  1  0.23315000  0.35838000  0.19154000  1
  C  C426  1  0.76685000  0.35838000  0.80846000  1
  C  C427  1  0.76685000  0.64162000  0.19154000  1
  C  C428  1  0.80846000  0.23315000  0.64162000  1
  C  C429  1  0.19154000  0.23315000  0.35838000  1
  C  C430  1  0.80846000  0.76685000  0.35838000  1
  C  C431  1  0.19154000  0.76685000  0.64162000  1
  C  C432  1  0.30846000  0.14162000  0.26685000  1
  C  C433  1  0.69154000  0.85838000  0.26685000  1
  C  C434  1  0.30846000  0.85838000  0.73315000  1
  C  C435  1  0.69154000  0.14162000  0.73315000  1
  C  C436  1  0.14162000  0.73315000  0.69154000  1
  C  C437  1  0.85838000  0.73315000  0.30846000  1
  C  C438  1  0.85838000  0.26685000  0.69154000  1
  C  C439  1  0.14162000  0.26685000  0.30846000  1
  C  C440  1  0.73315000  0.30846000  0.85838000  1
  C  C441  1  0.73315000  0.69154000  0.14162000  1
  C  C442  1  0.26685000  0.30846000  0.14162000  1
  C  C443  1  0.26685000  0.69154000  0.85838000  1
  C  C444  1  0.35838000  0.19154000  0.76685000  1
  C  C445  1  0.64162000  0.80846000  0.76685000  1
  C  C446  1  0.64162000  0.19154000  0.23315000  1
  C  C447  1  0.35838000  0.80846000  0.23315000  1
  C  C448  1  0.76685000  0.35838000  0.19154000  1
  C  C449  1  0.76685000  0.64162000  0.80846000  1
  C  C450  1  0.23315000  0.64162000  0.19154000  1
  C  C451  1  0.23315000  0.35838000  0.80846000  1
  C  C452  1  0.19154000  0.76685000  0.35838000  1
  C  C453  1  0.80846000  0.76685000  0.64162000  1
  C  C454  1  0.19154000  0.23315000  0.64162000  1
  C  C455  1  0.80846000  0.23315000  0.35838000  1
  C  C456  1  0.69154000  0.85838000  0.73315000  1
  C  C457  1  0.30846000  0.14162000  0.73315000  1
  C  C458  1  0.69154000  0.14162000  0.26685000  1
  C  C459  1  0.30846000  0.85838000  0.26685000  1
  C  C460  1  0.85838000  0.26685000  0.30846000  1
  C  C461  1  0.14162000  0.26685000  0.69154000  1
  C  C462  1  0.14162000  0.73315000  0.30846000  1
  C  C463  1  0.85838000  0.73315000  0.69154000  1
  C  C464  1  0.26685000  0.69154000  0.14162000  1
  C  C465  1  0.26685000  0.30846000  0.85838000  1
  C  C466  1  0.73315000  0.69154000  0.85838000  1
  C  C467  1  0.73315000  0.30846000  0.14162000  1
  O  O468  1  0.50000000  0.03703000  0.15039000  1
  O  O469  1  0.15039000  0.50000000  0.03703000  1
  O  O470  1  0.03703000  0.15039000  0.50000000  1
  O  O471  1  0.46297000  0.00000000  0.34961000  1
  O  O472  1  0.53703000  0.00000000  0.34961000  1
  O  O473  1  0.46297000  0.00000000  0.65039000  1
  O  O474  1  0.53703000  0.00000000  0.65039000  1
  O  O475  1  0.00000000  0.65039000  0.53703000  1
  O  O476  1  0.00000000  0.65039000  0.46297000  1
  O  O477  1  0.00000000  0.34961000  0.53703000  1
  O  O478  1  0.00000000  0.34961000  0.46297000  1
  O  O479  1  0.65039000  0.46297000  0.00000000  1
  O  O480  1  0.65039000  0.53703000  0.00000000  1
  O  O481  1  0.34961000  0.46297000  0.00000000  1
  O  O482  1  0.34961000  0.53703000  0.00000000  1
  O  O483  1  0.55094000  0.91182000  0.22472000  1
  O  O484  1  0.44906000  0.08818000  0.22472000  1
  O  O485  1  0.44906000  0.91182000  0.77528000  1
  O  O486  1  0.55094000  0.08818000  0.77528000  1
  O  O487  1  0.22472000  0.55094000  0.91182000  1
  O  O488  1  0.22472000  0.44906000  0.08818000  1
  O  O489  1  0.77528000  0.44906000  0.91182000  1
  O  O490  1  0.77528000  0.55094000  0.08818000  1
  O  O491  1  0.91182000  0.22472000  0.55094000  1
  O  O492  1  0.08818000  0.22472000  0.44906000  1
  O  O493  1  0.91182000  0.77528000  0.44906000  1
  O  O494  1  0.08818000  0.77528000  0.55094000  1
  O  O495  1  0.41182000  0.05094000  0.27528000  1
  O  O496  1  0.58818000  0.05094000  0.72472000  1
  O  O497  1  0.05094000  0.72472000  0.58818000  1
  O  O498  1  0.05094000  0.27528000  0.41182000  1
  O  O499  1  0.72472000  0.58818000  0.05094000  1
  O  O500  1  0.27528000  0.41182000  0.05094000  1
  O  O501  1  0.44906000  0.08818000  0.77528000  1
  O  O502  1  0.55094000  0.91182000  0.77528000  1
  O  O503  1  0.55094000  0.08818000  0.22472000  1
  O  O504  1  0.44906000  0.91182000  0.22472000  1
  O  O505  1  0.77528000  0.44906000  0.08818000  1
  O  O506  1  0.77528000  0.55094000  0.91182000  1
  O  O507  1  0.22472000  0.55094000  0.08818000  1
  O  O508  1  0.22472000  0.44906000  0.91182000  1
  O  O509  1  0.08818000  0.77528000  0.44906000  1
  O  O510  1  0.91182000  0.77528000  0.55094000  1
  O  O511  1  0.08818000  0.22472000  0.55094000  1
  O  O512  1  0.91182000  0.22472000  0.44906000  1
  O  O513  1  0.41182000  0.05094000  0.72472000  1
  O  O514  1  0.58818000  0.05094000  0.27528000  1
  O  O515  1  0.05094000  0.27528000  0.58818000  1
  O  O516  1  0.05094000  0.72472000  0.41182000  1
  O  O517  1  0.27528000  0.58818000  0.05094000  1
  O  O518  1  0.72472000  0.41182000  0.05094000  1
  O  O519  1  0.50000000  0.00000000  0.25000000  1.0
  O  O520  1  0.50000000  0.00000000  0.75000000  1.0
  O  O521  1  0.25000000  0.50000000  0.00000000  1.0
  O  O522  1  0.75000000  0.50000000  0.00000000  1.0
  O  O523  1  0.00000000  0.25000000  0.50000000  1.0
  O  O524  1  0.00000000  0.75000000  0.50000000  1.0
  O  O525  1  0.50000000  0.96297000  0.15039000  1.0
  O  O526  1  0.50000000  0.96297000  0.84961000  1.0
  O  O527  1  0.50000000  0.03703000  0.84961000  1.0
  O  O528  1  0.15039000  0.50000000  0.96297000  1.0
  O  O529  1  0.84961000  0.50000000  0.96297000  1.0
  O  O530  1  0.84961000  0.50000000  0.03703000  1.0
  O  O531  1  0.96297000  0.15039000  0.50000000  1.0
  O  O532  1  0.96297000  0.84961000  0.50000000  1.0
  O  O533  1  0.03703000  0.84961000  0.50000000  1.0
  O  O534  1  0.58818000  0.94906000  0.27528000  1.0
  O  O535  1  0.41182000  0.94906000  0.72472000  1.0
  O  O536  1  0.94906000  0.72472000  0.41182000  1.0
  O  O537  1  0.94906000  0.27528000  0.58818000  1.0
  O  O538  1  0.72472000  0.41182000  0.94906000  1.0
  O  O539  1  0.27528000  0.58818000  0.94906000  1.0
  O  O540  1  0.58818000  0.94906000  0.72472000  1.0
  O  O541  1  0.41182000  0.94906000  0.27528000  1.0
  O  O542  1  0.94906000  0.27528000  0.41182000  1.0
  O  O543  1  0.94906000  0.72472000  0.58818000  1.0
  O  O544  1  0.27528000  0.41182000  0.94906000  1.0
  O  O545  1  0.72472000  0.58818000  0.94906000  1.0
