# generated using pymatgen
data_Ni5H54C66(N2O11)2
_symmetry_space_group_name_H-M   'P 1'
_cell_length_a   25.49397368
_cell_length_b   25.49397368
_cell_length_c   25.49397368
_cell_angle_alpha   87.97436980
_cell_angle_beta   87.97436980
_cell_angle_gamma   87.97436980
_symmetry_Int_Tables_number   1
_chemical_formula_structural   Ni5H54C66(N2O11)2
_chemical_formula_sum   'Ni15 H162 C198 N12 O66'
_cell_volume   16539.27326757
_cell_formula_units_Z   3
loop_
 _symmetry_equiv_pos_site_id
 _symmetry_equiv_pos_as_xyz
  1  'x, y, z'
loop_
 _atom_site_type_symbol
 _atom_site_label
 _atom_site_symmetry_multiplicity
 _atom_site_fract_x
 _atom_site_fract_y
 _atom_site_fract_z
 _atom_site_occupancy
  C  C0  1  0.60070000  0.17660000  0.66200000  1.0
  C  C1  1  0.66200000  0.60070000  0.17660000  1.0
  C  C2  1  0.17660000  0.66200000  0.60070000  1.0
  C  C3  1  0.39930000  0.82340000  0.33800000  1.0
  C  C4  1  0.33800000  0.39930000  0.82340000  1.0
  C  C5  1  0.82340000  0.33800000  0.39930000  1.0
  C  C6  1  0.62080000  0.22130000  0.68090000  1.0
  C  C7  1  0.68090000  0.62080000  0.22130000  1.0
  C  C8  1  0.22130000  0.68090000  0.62080000  1.0
  C  C9  1  0.37920000  0.77870000  0.31910000  1.0
  C  C10  1  0.31910000  0.37920000  0.77870000  1.0
  C  C11  1  0.77870000  0.31910000  0.37920000  1.0
  C  C12  1  0.75380000  0.40320000  0.34580000  1.0
  C  C13  1  0.34580000  0.75380000  0.40320000  1.0
  C  C14  1  0.40320000  0.34580000  0.75380000  1.0
  C  C15  1  0.24620000  0.59680000  0.65420000  1.0
  C  C16  1  0.65420000  0.24620000  0.59680000  1.0
  C  C17  1  0.59680000  0.65420000  0.24620000  1.0
  C  C18  1  0.79900000  0.42220000  0.36410000  1.0
  C  C19  1  0.36410000  0.79900000  0.42220000  1.0
  C  C20  1  0.42220000  0.36410000  0.79900000  1.0
  C  C21  1  0.20100000  0.57780000  0.63590000  1.0
  C  C22  1  0.63590000  0.20100000  0.57780000  1.0
  C  C23  1  0.57780000  0.63590000  0.20100000  1.0
  C  C24  1  0.32867000  0.69617000  0.32907000  1.0
  C  C25  1  0.32907000  0.32867000  0.69617000  1.0
  C  C26  1  0.69617000  0.32907000  0.32867000  1.0
  C  C27  1  0.67133000  0.30383000  0.67093000  1.0
  C  C28  1  0.67093000  0.67133000  0.30383000  1.0
  C  C29  1  0.30383000  0.67093000  0.67133000  1.0
  C  C30  1  0.28324000  0.67420000  0.35048000  1.0
  C  C31  1  0.35048000  0.28324000  0.67420000  1.0
  C  C32  1  0.67420000  0.35048000  0.28324000  1.0
  C  C33  1  0.71676000  0.32580000  0.64952000  1.0
  C  C34  1  0.64952000  0.71676000  0.32580000  1.0
  C  C35  1  0.32580000  0.64952000  0.71676000  1.0
  C  C36  1  0.26032000  0.63245000  0.32899000  1.0
  C  C37  1  0.32899000  0.26032000  0.63245000  1.0
  C  C38  1  0.63245000  0.32899000  0.26032000  1.0
  C  C39  1  0.73968000  0.36755000  0.67101000  1.0
  C  C40  1  0.67101000  0.73968000  0.36755000  1.0
  C  C41  1  0.36755000  0.67101000  0.73968000  1.0
  C  C42  1  0.28285000  0.61124000  0.28306000  1.0
  C  C43  1  0.28306000  0.28285000  0.61124000  1.0
  C  C44  1  0.61124000  0.28306000  0.28285000  1.0
  C  C45  1  0.71715000  0.38876000  0.71694000  1.0
  C  C46  1  0.71694000  0.71715000  0.38876000  1.0
  C  C47  1  0.38876000  0.71694000  0.71715000  1.0
  C  C48  1  0.32903000  0.63212000  0.26064000  1.0
  C  C49  1  0.26064000  0.32903000  0.63212000  1.0
  C  C50  1  0.63212000  0.26064000  0.32903000  1.0
  C  C51  1  0.67097000  0.36788000  0.73936000  1.0
  C  C52  1  0.73936000  0.67097000  0.36788000  1.0
  C  C53  1  0.36788000  0.73936000  0.67097000  1.0
  C  C54  1  0.35061000  0.67398000  0.28324000  1.0
  C  C55  1  0.28324000  0.35061000  0.67398000  1.0
  C  C56  1  0.67398000  0.28324000  0.35061000  1.0
  C  C57  1  0.64939000  0.32602000  0.71676000  1.0
  C  C58  1  0.71676000  0.64939000  0.32602000  1.0
  C  C59  1  0.32602000  0.71676000  0.64939000  1.0
  C  C60  1  0.35043000  0.74295000  0.35041000  1.0
  C  C61  1  0.35041000  0.35043000  0.74295000  1.0
  C  C62  1  0.74295000  0.35041000  0.35043000  1.0
  C  C63  1  0.64957000  0.25705000  0.64959000  1.0
  C  C64  1  0.64959000  0.64957000  0.25705000  1.0
  C  C65  1  0.25705000  0.64959000  0.64957000  1.0
  C  C66  1  0.35117000  0.61046000  0.21018000  1.0
  C  C67  1  0.21018000  0.35117000  0.61046000  1.0
  C  C68  1  0.61046000  0.21018000  0.35117000  1.0
  C  C69  1  0.64883000  0.38954000  0.78982000  1.0
  C  C70  1  0.78982000  0.64883000  0.38954000  1.0
  C  C71  1  0.38954000  0.78982000  0.64883000  1.0
  C  C72  1  0.31923000  0.59287000  0.17379000  1.0
  C  C73  1  0.17379000  0.31923000  0.59287000  1.0
  C  C74  1  0.59287000  0.17379000  0.31923000  1.0
  C  C75  1  0.68077000  0.40713000  0.82621000  1.0
  C  C76  1  0.82621000  0.68077000  0.40713000  1.0
  C  C77  1  0.40713000  0.82621000  0.68077000  1.0
  C  C78  1  0.33876000  0.57314000  0.12608000  1.0
  C  C79  1  0.12608000  0.33876000  0.57314000  1.0
  C  C80  1  0.57314000  0.12608000  0.33876000  1.0
  C  C81  1  0.66124000  0.42686000  0.87392000  1.0
  C  C82  1  0.87392000  0.66124000  0.42686000  1.0
  C  C83  1  0.42686000  0.87392000  0.66124000  1.0
  C  C84  1  0.39322000  0.57012000  0.11697000  1.0
  C  C85  1  0.11697000  0.39322000  0.57012000  1.0
  C  C86  1  0.57012000  0.11697000  0.39322000  1.0
  C  C87  1  0.60678000  0.42988000  0.88303000  1.0
  C  C88  1  0.88303000  0.60678000  0.42988000  1.0
  C  C89  1  0.42988000  0.88303000  0.60678000  1.0
  C  C90  1  0.42565000  0.58726000  0.15344000  1.0
  C  C91  1  0.15344000  0.42565000  0.58726000  1.0
  C  C92  1  0.58726000  0.15344000  0.42565000  1.0
  C  C93  1  0.57435000  0.41274000  0.84656000  1.0
  C  C94  1  0.84656000  0.57435000  0.41274000  1.0
  C  C95  1  0.41274000  0.84656000  0.57435000  1.0
  C  C96  1  0.40518000  0.60760000  0.20106000  1.0
  C  C97  1  0.20106000  0.40518000  0.60760000  1.0
  C  C98  1  0.60760000  0.20106000  0.40518000  1.0
  C  C99  1  0.59482000  0.39240000  0.79894000  1.0
  C  C100  1  0.79894000  0.59482000  0.39240000  1.0
  C  C101  1  0.39240000  0.79894000  0.59482000  1.0
  C  C102  1  0.21059000  0.61034000  0.35124000  1.0
  C  C103  1  0.35124000  0.21059000  0.61034000  1.0
  C  C104  1  0.61034000  0.35124000  0.21059000  1.0
  C  C105  1  0.78941000  0.38966000  0.64876000  1.0
  C  C106  1  0.64876000  0.78941000  0.38966000  1.0
  C  C107  1  0.38966000  0.64876000  0.78941000  1.0
  C  C108  1  0.17381000  0.59291000  0.31911000  1.0
  C  C109  1  0.31911000  0.17381000  0.59291000  1.0
  C  C110  1  0.59291000  0.31911000  0.17381000  1.0
  C  C111  1  0.82619000  0.40709000  0.68089000  1.0
  C  C112  1  0.68089000  0.82619000  0.40709000  1.0
  C  C113  1  0.40709000  0.68089000  0.82619000  1.0
  C  C114  1  0.12576000  0.57326000  0.33896000  1.0
  C  C115  1  0.33896000  0.12576000  0.57326000  1.0
  C  C116  1  0.57326000  0.33896000  0.12576000  1.0
  C  C117  1  0.87424000  0.42674000  0.66104000  1.0
  C  C118  1  0.66104000  0.87424000  0.42674000  1.0
  C  C119  1  0.42674000  0.66104000  0.87424000  1.0
  C  C120  1  0.11675000  0.57014000  0.39324000  1.0
  C  C121  1  0.39324000  0.11675000  0.57014000  1.0
  C  C122  1  0.57014000  0.39324000  0.11675000  1.0
  C  C123  1  0.88325000  0.42986000  0.60676000  1.0
  C  C124  1  0.60676000  0.88325000  0.42986000  1.0
  C  C125  1  0.42986000  0.60676000  0.88325000  1.0
  C  C126  1  0.15340000  0.58735000  0.42575000  1.0
  C  C127  1  0.42575000  0.15340000  0.58735000  1.0
  C  C128  1  0.58735000  0.42575000  0.15340000  1.0
  C  C129  1  0.84660000  0.41265000  0.57425000  1.0
  C  C130  1  0.57425000  0.84660000  0.41265000  1.0
  C  C131  1  0.41265000  0.57425000  0.84660000  1.0
  C  C132  1  0.20087000  0.60789000  0.40505000  1.0
  C  C133  1  0.40505000  0.20087000  0.60789000  1.0
  C  C134  1  0.60789000  0.40505000  0.20087000  1.0
  C  C135  1  0.79913000  0.39211000  0.59495000  1.0
  C  C136  1  0.59495000  0.79913000  0.39211000  1.0
  C  C137  1  0.39211000  0.59495000  0.79913000  1.0
  C  C138  1  0.41319000  0.54799000  0.06564000  1.0
  C  C139  1  0.06564000  0.41319000  0.54799000  1.0
  C  C140  1  0.54799000  0.06564000  0.41319000  1.0
  C  C141  1  0.58681000  0.45201000  0.93436000  1.0
  C  C142  1  0.93436000  0.58681000  0.45201000  1.0
  C  C143  1  0.45201000  0.93436000  0.58681000  1.0
  C  C144  1  0.06565000  0.54780000  0.41322000  1.0
  C  C145  1  0.41322000  0.06565000  0.54780000  1.0
  C  C146  1  0.54780000  0.41322000  0.06565000  1.0
  C  C147  1  0.93435000  0.45220000  0.58678000  1.0
  C  C148  1  0.58678000  0.93435000  0.45220000  1.0
  C  C149  1  0.45220000  0.58678000  0.93435000  1.0
  C  C150  1  0.69870000  0.47290000  0.09390000  1.0
  C  C151  1  0.09390000  0.69870000  0.47290000  1.0
  C  C152  1  0.47290000  0.09390000  0.69870000  1.0
  C  C153  1  0.30130000  0.52710000  0.90610000  1.0
  C  C154  1  0.90610000  0.30130000  0.52710000  1.0
  C  C155  1  0.52710000  0.90610000  0.30130000  1.0
  C  C156  1  0.72510000  0.38350000  0.12030000  1.0
  C  C157  1  0.12030000  0.72510000  0.38350000  1.0
  C  C158  1  0.38350000  0.12030000  0.72510000  1.0
  C  C159  1  0.27490000  0.61650000  0.87970000  1.0
  C  C160  1  0.87970000  0.27490000  0.61650000  1.0
  C  C161  1  0.61650000  0.87970000  0.27490000  1.0
  C  C162  1  0.76210000  0.46090000  0.16430000  1.0
  C  C163  1  0.16430000  0.76210000  0.46090000  1.0
  C  C164  1  0.46090000  0.16430000  0.76210000  1.0
  C  C165  1  0.23790000  0.53910000  0.83570000  1.0
  C  C166  1  0.83570000  0.23790000  0.53910000  1.0
  C  C167  1  0.53910000  0.83570000  0.23790000  1.0
  C  C168  1  0.47250000  0.69800000  0.09380000  1.0
  C  C169  1  0.09380000  0.47250000  0.69800000  1.0
  C  C170  1  0.69800000  0.09380000  0.47250000  1.0
  C  C171  1  0.52750000  0.30200000  0.90620000  1.0
  C  C172  1  0.90620000  0.52750000  0.30200000  1.0
  C  C173  1  0.30200000  0.90620000  0.52750000  1.0
  C  C174  1  0.38360000  0.72530000  0.12240000  1.0
  C  C175  1  0.12240000  0.38360000  0.72530000  1.0
  C  C176  1  0.72530000  0.12240000  0.38360000  1.0
  C  C177  1  0.61640000  0.27470000  0.87760000  1.0
  C  C178  1  0.87760000  0.61640000  0.27470000  1.0
  C  C179  1  0.27470000  0.87760000  0.61640000  1.0
  C  C180  1  0.46060000  0.76360000  0.16310000  1.0
  C  C181  1  0.16310000  0.46060000  0.76360000  1.0
  C  C182  1  0.76360000  0.16310000  0.46060000  1.0
  C  C183  1  0.53940000  0.23640000  0.83690000  1.0
  C  C184  1  0.83690000  0.53940000  0.23640000  1.0
  C  C185  1  0.23640000  0.83690000  0.53940000  1.0
  C  C186  1  0.60774000  0.16654000  0.60793000  1.0
  C  C187  1  0.60793000  0.60774000  0.16654000  1.0
  C  C188  1  0.16654000  0.60793000  0.60774000  1.0
  C  C189  1  0.39226000  0.83346000  0.39207000  1.0
  C  C190  1  0.39207000  0.39226000  0.83346000  1.0
  C  C191  1  0.83346000  0.39207000  0.39226000  1.0
  C  C192  1  0.58754000  0.11733000  0.58758000  1.0
  C  C193  1  0.58758000  0.58754000  0.11733000  1.0
  C  C194  1  0.11733000  0.58758000  0.58754000  1.0
  C  C195  1  0.41246000  0.88267000  0.41242000  1.0
  C  C196  1  0.41242000  0.41246000  0.88267000  1.0
  C  C197  1  0.88267000  0.41242000  0.41246000  1.0
  H  H198  1  0.37390000  0.69060000  0.13410000  1.0
  H  H199  1  0.13410000  0.37390000  0.69060000  1.0
  H  H200  1  0.69060000  0.13410000  0.37390000  1.0
  H  H201  1  0.62610000  0.30940000  0.86590000  1.0
  H  H202  1  0.86590000  0.62610000  0.30940000  1.0
  H  H203  1  0.30940000  0.86590000  0.62610000  1.0
  H  H204  1  0.58270000  0.15330000  0.68440000  1.0
  H  H205  1  0.68440000  0.58270000  0.15330000  1.0
  H  H206  1  0.15330000  0.68440000  0.58270000  1.0
  H  H207  1  0.41730000  0.84670000  0.31560000  1.0
  H  H208  1  0.31560000  0.41730000  0.84670000  1.0
  H  H209  1  0.84670000  0.31560000  0.41730000  1.0
  H  H210  1  0.61490000  0.22820000  0.71620000  1.0
  H  H211  1  0.71620000  0.61490000  0.22820000  1.0
  H  H212  1  0.22820000  0.71620000  0.61490000  1.0
  H  H213  1  0.38510000  0.77180000  0.28380000  1.0
  H  H214  1  0.28380000  0.38510000  0.77180000  1.0
  H  H215  1  0.77180000  0.28380000  0.38510000  1.0
  H  H216  1  0.72980000  0.42620000  0.32970000  1.0
  H  H217  1  0.32970000  0.72980000  0.42620000  1.0
  H  H218  1  0.42620000  0.32970000  0.72980000  1.0
  H  H219  1  0.27020000  0.57380000  0.67030000  1.0
  H  H220  1  0.67030000  0.27020000  0.57380000  1.0
  H  H221  1  0.57380000  0.67030000  0.27020000  1.0
  H  H222  1  0.80630000  0.45730000  0.35710000  1.0
  H  H223  1  0.35710000  0.80630000  0.45730000  1.0
  H  H224  1  0.45730000  0.35710000  0.80630000  1.0
  H  H225  1  0.19370000  0.54270000  0.64290000  1.0
  H  H226  1  0.64290000  0.19370000  0.54270000  1.0
  H  H227  1  0.54270000  0.64290000  0.19370000  1.0
  H  H228  1  0.26760000  0.68840000  0.38060000  1.0
  H  H229  1  0.38060000  0.26760000  0.68840000  1.0
  H  H230  1  0.68840000  0.38060000  0.26760000  1.0
  H  H231  1  0.73240000  0.31160000  0.61940000  1.0
  H  H232  1  0.61940000  0.73240000  0.31160000  1.0
  H  H233  1  0.31160000  0.61940000  0.73240000  1.0
  H  H234  1  0.26720000  0.58350000  0.26750000  1.0
  H  H235  1  0.26750000  0.26720000  0.58350000  1.0
  H  H236  1  0.58350000  0.26750000  0.26720000  1.0
  H  H237  1  0.73280000  0.41650000  0.73250000  1.0
  H  H238  1  0.73250000  0.73280000  0.41650000  1.0
  H  H239  1  0.41650000  0.73250000  0.73280000  1.0
  H  H240  1  0.38070000  0.68820000  0.26770000  1.0
  H  H241  1  0.26770000  0.38070000  0.68820000  1.0
  H  H242  1  0.68820000  0.26770000  0.38070000  1.0
  H  H243  1  0.61930000  0.31180000  0.73230000  1.0
  H  H244  1  0.73230000  0.61930000  0.31180000  1.0
  H  H245  1  0.31180000  0.73230000  0.61930000  1.0
  H  H246  1  0.28320000  0.59360000  0.18080000  1.0
  H  H247  1  0.18080000  0.28320000  0.59360000  1.0
  H  H248  1  0.59360000  0.18080000  0.28320000  1.0
  H  H249  1  0.71680000  0.40640000  0.81920000  1.0
  H  H250  1  0.81920000  0.71680000  0.40640000  1.0
  H  H251  1  0.40640000  0.81920000  0.71680000  1.0
  H  H252  1  0.31610000  0.56240000  0.10110000  1.0
  H  H253  1  0.10110000  0.31610000  0.56240000  1.0
  H  H254  1  0.56240000  0.10110000  0.31610000  1.0
  H  H255  1  0.68390000  0.43760000  0.89890000  1.0
  H  H256  1  0.89890000  0.68390000  0.43760000  1.0
  H  H257  1  0.43760000  0.89890000  0.68390000  1.0
  H  H258  1  0.46180000  0.58560000  0.14700000  1.0
  H  H259  1  0.14700000  0.46180000  0.58560000  1.0
  H  H260  1  0.58560000  0.14700000  0.46180000  1.0
  H  H261  1  0.53820000  0.41440000  0.85300000  1.0
  H  H262  1  0.85300000  0.53820000  0.41440000  1.0
  H  H263  1  0.41440000  0.85300000  0.53820000  1.0
  H  H264  1  0.42760000  0.61880000  0.22600000  1.0
  H  H265  1  0.22600000  0.42760000  0.61880000  1.0
  H  H266  1  0.61880000  0.22600000  0.42760000  1.0
  H  H267  1  0.57240000  0.38120000  0.77400000  1.0
  H  H268  1  0.77400000  0.57240000  0.38120000  1.0
  H  H269  1  0.38120000  0.77400000  0.57240000  1.0
  H  H270  1  0.18050000  0.59400000  0.28310000  1.0
  H  H271  1  0.28310000  0.18050000  0.59400000  1.0
  H  H272  1  0.59400000  0.28310000  0.18050000  1.0
  H  H273  1  0.81950000  0.40600000  0.71690000  1.0
  H  H274  1  0.71690000  0.81950000  0.40600000  1.0
  H  H275  1  0.40600000  0.71690000  0.81950000  1.0
  H  H276  1  0.10070000  0.56260000  0.31630000  1.0
  H  H277  1  0.31630000  0.10070000  0.56260000  1.0
  H  H278  1  0.56260000  0.31630000  0.10070000  1.0
  H  H279  1  0.89930000  0.43740000  0.68370000  1.0
  H  H280  1  0.68370000  0.89930000  0.43740000  1.0
  H  H281  1  0.43740000  0.68370000  0.89930000  1.0
  H  H282  1  0.14690000  0.58560000  0.46190000  1.0
  H  H283  1  0.46190000  0.14690000  0.58560000  1.0
  H  H284  1  0.58560000  0.46190000  0.14690000  1.0
  H  H285  1  0.85310000  0.41440000  0.53810000  1.0
  H  H286  1  0.53810000  0.85310000  0.41440000  1.0
  H  H287  1  0.41440000  0.53810000  0.85310000  1.0
  H  H288  1  0.22550000  0.61960000  0.42760000  1.0
  H  H289  1  0.42760000  0.22550000  0.61960000  1.0
  H  H290  1  0.61960000  0.42760000  0.22550000  1.0
  H  H291  1  0.77450000  0.38040000  0.57240000  1.0
  H  H292  1  0.57240000  0.77450000  0.38040000  1.0
  H  H293  1  0.38040000  0.57240000  0.77450000  1.0
  H  H294  1  0.75000000  0.36670000  0.14340000  1.0
  H  H295  1  0.14340000  0.75000000  0.36670000  1.0
  H  H296  1  0.36670000  0.14340000  0.75000000  1.0
  H  H297  1  0.25000000  0.63330000  0.85660000  1.0
  H  H298  1  0.85660000  0.25000000  0.63330000  1.0
  H  H299  1  0.63330000  0.85660000  0.25000000  1.0
  H  H300  1  0.73270000  0.37280000  0.08500000  1.0
  H  H301  1  0.08500000  0.73270000  0.37280000  1.0
  H  H302  1  0.37280000  0.08500000  0.73270000  1.0
  H  H303  1  0.26730000  0.62720000  0.91500000  1.0
  H  H304  1  0.91500000  0.26730000  0.62720000  1.0
  H  H305  1  0.62720000  0.91500000  0.26730000  1.0
  H  H306  1  0.69030000  0.37340000  0.13100000  1.0
  H  H307  1  0.13100000  0.69030000  0.37340000  1.0
  H  H308  1  0.37340000  0.13100000  0.69030000  1.0
  H  H309  1  0.30970000  0.62660000  0.86900000  1.0
  H  H310  1  0.86900000  0.30970000  0.62660000  1.0
  H  H311  1  0.62660000  0.86900000  0.30970000  1.0
  H  H312  1  0.78180000  0.43280000  0.18110000  1.0
  H  H313  1  0.18110000  0.78180000  0.43280000  1.0
  H  H314  1  0.43280000  0.18110000  0.78180000  1.0
  H  H315  1  0.21820000  0.56720000  0.81890000  1.0
  H  H316  1  0.81890000  0.21820000  0.56720000  1.0
  H  H317  1  0.56720000  0.81890000  0.21820000  1.0
  H  H318  1  0.73980000  0.47830000  0.18990000  1.0
  H  H319  1  0.18990000  0.73980000  0.47830000  1.0
  H  H320  1  0.47830000  0.18990000  0.73980000  1.0
  H  H321  1  0.26020000  0.52170000  0.81010000  1.0
  H  H322  1  0.81010000  0.26020000  0.52170000  1.0
  H  H323  1  0.52170000  0.81010000  0.26020000  1.0
  H  H324  1  0.78580000  0.48580000  0.14810000  1.0
  H  H325  1  0.14810000  0.78580000  0.48580000  1.0
  H  H326  1  0.48580000  0.14810000  0.78580000  1.0
  H  H327  1  0.21420000  0.51420000  0.85190000  1.0
  H  H328  1  0.85190000  0.21420000  0.51420000  1.0
  H  H329  1  0.51420000  0.85190000  0.21420000  1.0
  H  H330  1  0.36740000  0.75050000  0.14550000  1.0
  H  H331  1  0.14550000  0.36740000  0.75050000  1.0
  H  H332  1  0.75050000  0.14550000  0.36740000  1.0
  H  H333  1  0.63260000  0.24950000  0.85450000  1.0
  H  H334  1  0.85450000  0.63260000  0.24950000  1.0
  H  H335  1  0.24950000  0.85450000  0.63260000  1.0
  H  H336  1  0.37200000  0.73230000  0.08740000  1.0
  H  H337  1  0.08740000  0.37200000  0.73230000  1.0
  H  H338  1  0.73230000  0.08740000  0.37200000  1.0
  H  H339  1  0.62800000  0.26770000  0.91260000  1.0
  H  H340  1  0.91260000  0.62800000  0.26770000  1.0
  H  H341  1  0.26770000  0.91260000  0.62800000  1.0
  H  H342  1  0.43210000  0.78370000  0.17900000  1.0
  H  H343  1  0.17900000  0.43210000  0.78370000  1.0
  H  H344  1  0.78370000  0.17900000  0.43210000  1.0
  H  H345  1  0.56790000  0.21630000  0.82100000  1.0
  H  H346  1  0.82100000  0.56790000  0.21630000  1.0
  H  H347  1  0.21630000  0.82100000  0.56790000  1.0
  H  H348  1  0.48520000  0.78710000  0.14620000  1.0
  H  H349  1  0.14620000  0.48520000  0.78710000  1.0
  H  H350  1  0.78710000  0.14620000  0.48520000  1.0
  H  H351  1  0.51480000  0.21290000  0.85380000  1.0
  H  H352  1  0.85380000  0.51480000  0.21290000  1.0
  H  H353  1  0.21290000  0.85380000  0.51480000  1.0
  H  H354  1  0.47800000  0.74230000  0.18950000  1.0
  H  H355  1  0.18950000  0.47800000  0.74230000  1.0
  H  H356  1  0.74230000  0.18950000  0.47800000  1.0
  H  H357  1  0.52200000  0.25770000  0.81050000  1.0
  H  H358  1  0.81050000  0.52200000  0.25770000  1.0
  H  H359  1  0.25770000  0.81050000  0.52200000  1.0
  N  N360  1  0.72840000  0.43900000  0.12240000  1.0
  N  N361  1  0.12240000  0.72840000  0.43900000  1.0
  N  N362  1  0.43900000  0.12240000  0.72840000  1.0
  N  N363  1  0.27160000  0.56100000  0.87760000  1.0
  N  N364  1  0.87760000  0.27160000  0.56100000  1.0
  N  N365  1  0.56100000  0.87760000  0.27160000  1.0
  N  N366  1  0.43970000  0.72880000  0.12310000  1.0
  N  N367  1  0.12310000  0.43970000  0.72880000  1.0
  N  N368  1  0.72880000  0.12310000  0.43970000  1.0
  N  N369  1  0.56030000  0.27120000  0.87690000  1.0
  N  N370  1  0.87690000  0.56030000  0.27120000  1.0
  N  N371  1  0.27120000  0.87690000  0.56030000  1.0
  Ni  Ni372  1  0.50000000  0.50000000  1.00000000  1.0
  Ni  Ni373  1  1.00000000  0.50000000  0.50000000  1.0
  Ni  Ni374  1  0.50000000  1.00000000  0.50000000  1.0
  Ni  Ni375  1  0.61195800  0.51042000  0.03094900  1.0
  Ni  Ni376  1  0.03094900  0.61195800  0.51042000  1.0
  Ni  Ni377  1  0.51042000  0.03094900  0.61195800  1.0
  Ni  Ni378  1  0.38804200  0.48958000  0.96905100  1.0
  Ni  Ni379  1  0.96905100  0.38804200  0.48958000  1.0
  Ni  Ni380  1  0.48958000  0.96905100  0.38804200  1.0
  Ni  Ni381  1  0.51042300  0.61196300  0.03092300  1.0
  Ni  Ni382  1  0.03092300  0.51042300  0.61196300  1.0
  Ni  Ni383  1  0.61196300  0.03092300  0.51042300  1.0
  Ni  Ni384  1  0.48957700  0.38803700  0.96907700  1.0
  Ni  Ni385  1  0.96907700  0.48957700  0.38803700  1.0
  Ni  Ni386  1  0.38803700  0.96907700  0.48957700  1.0
  O  O387  1  0.55467000  0.55478000  0.99831000  1.0
  O  O388  1  0.99831000  0.55467000  0.55478000  1.0
  O  O389  1  0.55478000  0.99831000  0.55467000  1.0
  O  O390  1  0.44533000  0.44522000  0.00169000  1.0
  O  O391  1  0.00169000  0.44533000  0.44522000  1.0
  O  O392  1  0.44522000  0.00169000  0.44533000  1.0
  O  O393  1  0.38071000  0.53182000  0.03638000  1.0
  O  O394  1  0.03638000  0.38071000  0.53182000  1.0
  O  O395  1  0.53182000  0.03638000  0.38071000  1.0
  O  O396  1  0.61929000  0.46818000  0.96362000  1.0
  O  O397  1  0.96362000  0.61929000  0.46818000  1.0
  O  O398  1  0.46818000  0.96362000  0.61929000  1.0
  O  O399  1  0.46340000  0.54658000  0.05725000  1.0
  O  O400  1  0.05725000  0.46340000  0.54658000  1.0
  O  O401  1  0.54658000  0.05725000  0.46340000  1.0
  O  O402  1  0.53660000  0.45342000  0.94275000  1.0
  O  O403  1  0.94275000  0.53660000  0.45342000  1.0
  O  O404  1  0.45342000  0.94275000  0.53660000  1.0
  O  O405  1  0.67221000  0.55688000  0.00131000  1.0
  O  O406  1  0.00131000  0.67221000  0.55688000  1.0
  O  O407  1  0.55688000  0.00131000  0.67221000  1.0
  O  O408  1  0.32779000  0.44312000  0.99869000  1.0
  O  O409  1  0.99869000  0.32779000  0.44312000  1.0
  O  O410  1  0.44312000  0.99869000  0.32779000  1.0
  O  O411  1  0.66675000  0.45794000  0.06230000  1.0
  O  O412  1  0.06230000  0.66675000  0.45794000  1.0
  O  O413  1  0.45794000  0.06230000  0.66675000  1.0
  O  O414  1  0.33325000  0.54206000  0.93770000  1.0
  O  O415  1  0.93770000  0.33325000  0.54206000  1.0
  O  O416  1  0.54206000  0.93770000  0.33325000  1.0
  O  O417  1  0.45808000  0.66679000  0.06248000  1.0
  O  O418  1  0.06248000  0.45808000  0.66679000  1.0
  O  O419  1  0.66679000  0.06248000  0.45808000  1.0
  O  O420  1  0.54192000  0.33321000  0.93752000  1.0
  O  O421  1  0.93752000  0.54192000  0.33321000  1.0
  O  O422  1  0.33321000  0.93752000  0.54192000  1.0
  O  O423  1  0.55666000  0.67218000  0.00144000  1.0
  O  O424  1  0.00144000  0.55666000  0.67218000  1.0
  O  O425  1  0.67218000  0.00144000  0.55666000  1.0
  O  O426  1  0.44334000  0.32782000  0.99856000  1.0
  O  O427  1  0.99856000  0.44334000  0.32782000  1.0
  O  O428  1  0.32782000  0.99856000  0.44334000  1.0
  O  O429  1  0.03634000  0.53165000  0.38071000  1.0
  O  O430  1  0.38071000  0.03634000  0.53165000  1.0
  O  O431  1  0.53165000  0.38071000  0.03634000  1.0
  O  O432  1  0.96366000  0.46835000  0.61929000  1.0
  O  O433  1  0.61929000  0.96366000  0.46835000  1.0
  O  O434  1  0.46835000  0.61929000  0.96366000  1.0
  O  O435  1  0.05724000  0.54666000  0.46345000  1.0
  O  O436  1  0.46345000  0.05724000  0.54666000  1.0
  O  O437  1  0.54666000  0.46345000  0.05724000  1.0
  O  O438  1  0.94276000  0.45334000  0.53655000  1.0
  O  O439  1  0.53655000  0.94276000  0.45334000  1.0
  O  O440  1  0.45334000  0.53655000  0.94276000  1.0
  O  O441  1  0.54815000  0.09869000  0.61165000  1.0
  O  O442  1  0.61165000  0.54815000  0.09869000  1.0
  O  O443  1  0.09869000  0.61165000  0.54815000  1.0
  O  O444  1  0.45185000  0.90131000  0.38835000  1.0
  O  O445  1  0.38835000  0.45185000  0.90131000  1.0
  O  O446  1  0.90131000  0.38835000  0.45185000  1.0
  O  O447  1  0.61181000  0.09877000  0.54839000  1.0
  O  O448  1  0.54839000  0.61181000  0.09877000  1.0
  O  O449  1  0.09877000  0.54839000  0.61181000  1.0
  O  O450  1  0.38819000  0.90123000  0.45161000  1.0
  O  O451  1  0.45161000  0.38819000  0.90123000  1.0
  O  O452  1  0.90123000  0.45161000  0.38819000  1.0
