# generated using pymatgen
data_ZnH6C5N8
_symmetry_space_group_name_H-M   'P 1'
_cell_length_a   9.69630000
_cell_length_b   9.69630000
_cell_length_c   20.12600000
_cell_angle_alpha   90.00000000
_cell_angle_beta   90.00000000
_cell_angle_gamma   120.00000000
_symmetry_Int_Tables_number   1
_chemical_formula_structural   ZnH6C5N8
_chemical_formula_sum   'Zn6 H36 C30 N48'
_cell_volume   1638.70277042
_cell_formula_units_Z   6
loop_
 _symmetry_equiv_pos_site_id
 _symmetry_equiv_pos_as_xyz
  1  'x, y, z'
loop_
 _atom_site_type_symbol
 _atom_site_label
 _atom_site_symmetry_multiplicity
 _atom_site_fract_x
 _atom_site_fract_y
 _atom_site_fract_z
 _atom_site_occupancy
  Zn  Zn0  1  0.05813000  0.56779000  0.58324100  1.0
  Zn  Zn1  1  0.50966000  0.94187000  0.24990767  1.0
  Zn  Zn2  1  0.43221000  0.49034000  0.91657433  1.0
  Zn  Zn3  1  0.49034000  0.43221000  0.41675900  1.0
  Zn  Zn4  1  0.56779000  0.05813000  0.75009233  1.0
  Zn  Zn5  1  0.94187000  0.50966000  0.08342567  1.0
  H  H6  1  0.99000000  0.66000000  0.44400000  1
  H  H7  1  0.67000000  0.01000000  0.11066667  1
  H  H8  1  0.34000000  0.33000000  0.77733333  1
  H  H9  1  0.33000000  0.34000000  0.55600000  1
  H  H10  1  0.66000000  0.99000000  0.88933333  1
  H  H11  1  0.01000000  0.67000000  0.22266667  1
  H  H12  1  0.86000000  0.66100000  0.40650000  1
  H  H13  1  0.80100000  0.14000000  0.07316667  1
  H  H14  1  0.33900000  0.19900000  0.73983333  1
  H  H15  1  0.19900000  0.33900000  0.59350000  1
  H  H16  1  0.66100000  0.86000000  0.92683333  1
  H  H17  1  0.14000000  0.80100000  0.26016667  1
  H  H18  1  0.90200000  0.06470000  0.78880000  1
  H  H19  1  0.16270000  0.09800000  0.45546667  1
  H  H20  1  0.93530000  0.83730000  0.12213333  1
  H  H21  1  0.83730000  0.93530000  0.21120000  1
  H  H22  1  0.06470000  0.90200000  0.54453333  1
  H  H23  1  0.09800000  0.16270000  0.87786667  1
  H  H24  1  0.01200000  0.08500000  0.74420000  1
  H  H25  1  0.07300000  0.98800000  0.41086667  1
  H  H26  1  0.91500000  0.92700000  0.07753333  1
  H  H27  1  0.92700000  0.91500000  0.25580000  1
  H  H28  1  0.08500000  0.01200000  0.58913333  1
  H  H29  1  0.98800000  0.07300000  0.92246667  1
  H  H30  1  0.72070000  0.47110000  0.68560000  1
  H  H31  1  0.75040000  0.27930000  0.35226667  1
  H  H32  1  0.52890000  0.24960000  0.01893333  1
  H  H33  1  0.24960000  0.52890000  0.31440000  1
  H  H34  1  0.47110000  0.72070000  0.64773333  1
  H  H35  1  0.27930000  0.75040000  0.98106667  1
  H  H36  1  0.59150000  0.29560000  0.66250000  1
  H  H37  1  0.70410000  0.40850000  0.32916667  1
  H  H38  1  0.70440000  0.29590000  0.99583333  1
  H  H39  1  0.29590000  0.70440000  0.33750000  1
  H  H40  1  0.29560000  0.59150000  0.67083333  1
  H  H41  1  0.40850000  0.70410000  0.00416667  1
  C  C42  1  0.80310000  0.56340000  0.49252000  1
  C  C43  1  0.76030000  0.19690000  0.15918667  1
  C  C44  1  0.43660000  0.23970000  0.82585333  1
  C  C45  1  0.23970000  0.43660000  0.50748000  1
  C  C46  1  0.56340000  0.80310000  0.84081333  1
  C  C47  1  0.19690000  0.76030000  0.17414667  1
  C  C48  1  0.71190000  0.44320000  0.58431000  1
  C  C49  1  0.73130000  0.28810000  0.25097667  1
  C  C50  1  0.55680000  0.26870000  0.91764333  1
  C  C51  1  0.26870000  0.55680000  0.41569000  1
  C  C52  1  0.44320000  0.71190000  0.74902333  1
  C  C53  1  0.28810000  0.73130000  0.08235667  1
  C  C54  1  0.70120000  0.38400000  0.65457000  1
  C  C55  1  0.68280000  0.29880000  0.32123667  1
  C  C56  1  0.61600000  0.31720000  0.98790333  1
  C  C57  1  0.31720000  0.61600000  0.34543000  1
  C  C58  1  0.38400000  0.70120000  0.67876333  1
  C  C59  1  0.29880000  0.68280000  0.01209667  1
  C  C60  1  0.81540000  0.32710000  0.67038000  1
  C  C61  1  0.51170000  0.18460000  0.33704667  1
  C  C62  1  0.67290000  0.48830000  0.00371333  1
  C  C63  1  0.48830000  0.67290000  0.32962000  1
  C  C64  1  0.32710000  0.81540000  0.66295333  1
  C  C65  1  0.18460000  0.51170000  0.99628667  1
  C  C66  1  0.91860000  0.19780000  0.71198000  1
  C  C67  1  0.27920000  0.08140000  0.37864667  1
  C  C68  1  0.80220000  0.72080000  0.04531333  1
  C  C69  1  0.72080000  0.80220000  0.28802000  1
  C  C70  1  0.19780000  0.91860000  0.62135333  1
  C  C71  1  0.08140000  0.27920000  0.95468667  1
  N  N72  1  0.58620000  0.40710000  0.54913000  1
  N  N73  1  0.82090000  0.41380000  0.21579667  1
  N  N74  1  0.59290000  0.17910000  0.88246333  1
  N  N75  1  0.17910000  0.59290000  0.45087000  1
  N  N76  1  0.40710000  0.58620000  0.78420333  1
  N  N77  1  0.41380000  0.82090000  0.11753667  1
  N  N78  1  0.85190000  0.54130000  0.55272000  1
  N  N79  1  0.68940000  0.14810000  0.21938667  1
  N  N80  1  0.45870000  0.31060000  0.88605333  1
  N  N81  1  0.31060000  0.45870000  0.44728000  1
  N  N82  1  0.54130000  0.85190000  0.78061333  1
  N  N83  1  0.14810000  0.68940000  0.11394667  1
  N  N84  1  0.90660000  0.66220000  0.44506000  1
  N  N85  1  0.75560000  0.09340000  0.11172667  1
  N  N86  1  0.33780000  0.24440000  0.77839333  1
  N  N87  1  0.24440000  0.33780000  0.55494000  1
  N  N88  1  0.66220000  0.90660000  0.88827333  1
  N  N89  1  0.09340000  0.75560000  0.22160667  1
  N  N90  1  0.96280000  0.39310000  0.64919000  1
  N  N91  1  0.43030000  0.03720000  0.31585667  1
  N  N92  1  0.60690000  0.56970000  0.98252333  1
  N  N93  1  0.56970000  0.60690000  0.35081000  1
  N  N94  1  0.39310000  0.96280000  0.68414333  1
  N  N95  1  0.03720000  0.43030000  0.01747667  1
  N  N96  1  0.03230000  0.30950000  0.67545000  1
  N  N97  1  0.27720000  0.96770000  0.34211667  1
  N  N98  1  0.69050000  0.72280000  0.00878333  1
  N  N99  1  0.72280000  0.69050000  0.32455000  1
  N  N100  1  0.30950000  0.03230000  0.65788333  1
  N  N101  1  0.96770000  0.27720000  0.99121667  1
  N  N102  1  0.93460000  0.08440000  0.74648000  1
  N  N103  1  0.14980000  0.06540000  0.41314667  1
  N  N104  1  0.91560000  0.85020000  0.07981333  1
  N  N105  1  0.85020000  0.91560000  0.25352000  1
  N  N106  1  0.08440000  0.93460000  0.58685333  1
  N  N107  1  0.06540000  0.14980000  0.92018667  1
  N  N108  1  0.64590000  0.48570000  0.48855000  1.0
  N  N109  1  0.83980000  0.35410000  0.15521667  1.0
  N  N110  1  0.51430000  0.16020000  0.82188333  1.0
  N  N111  1  0.16020000  0.51430000  0.51145000  1.0
  N  N112  1  0.48570000  0.64590000  0.84478333  1.0
  N  N113  1  0.35410000  0.83980000  0.17811667  1.0
  N  N114  1  0.77990000  0.20080000  0.71056000  1.0
  N  N115  1  0.42090000  0.22010000  0.37722667  1.0
  N  N116  1  0.79920000  0.57910000  0.04389333  1.0
  N  N117  1  0.57910000  0.79920000  0.28944000  1.0
  N  N118  1  0.20080000  0.77990000  0.62277333  1.0
  N  N119  1  0.22010000  0.42090000  0.95610667  1.0
